ligand
     RDKit          3D

 16 18  0  0  0  0  0  0  0  0999 V2000
   56.7154   33.1188   28.2906 C   0  0  0  0  0  0  0  0  0  0  0  0
   56.6577   31.8259   28.9770 C   0  0  0  0  0  0  0  0  0  0  0  0
   56.0767   31.3337   30.1286 C   0  0  0  0  0  0  0  0  0  0  0  0
   56.4052   29.9994   30.2229 N   0  0  0  0  0  0  0  0  0  0  0  0
   56.0486   29.1022   31.2077 C   0  0  0  0  0  0  0  0  0  0  0  0
   56.4931   27.8371   31.0844 C   0  0  0  0  0  0  0  0  0  0  0  0
   57.3218   27.4017   29.9637 C   0  0  0  0  0  0  0  0  0  0  0  0
   57.6757   28.2674   28.9975 C   0  0  0  0  0  0  0  0  0  0  0  0
   57.1658   29.6644   29.1640 C   0  0  0  0  0  0  0  0  0  0  0  0
   57.3247   30.7511   28.4066 N   0  0  0  0  0  0  0  0  0  0  0  0
   55.2952   31.8880   31.1190 N   0  0  0  0  0  0  0  0  0  0  0  0
   55.7351   32.8871   32.0673 C   0  0  0  0  0  0  0  0  0  0  0  0
   57.2549   32.8864   32.3038 C   0  0  0  0  0  0  0  0  0  0  0  0
   57.6608   34.3506   32.4853 C   0  0  0  0  0  0  0  0  0  0  0  0
   56.3555   35.1223   32.6100 C   0  0  0  0  0  0  0  0  0  0  0  0
   55.4105   34.3401   31.7113 C   0  0  0  0  0  0  0  0  0  0  0  0
  1  2  1  0
  2  3  2  0
  3 11  1  0
 11 12  1  0
 12 13  1  0
 13 14  1  0
 14 15  1  0
 15 16  1  0
  3  4  1  0
  4  5  1  0
  5  6  2  0
  6  7  1  0
  7  8  2  0
  8  9  1  0
  9 10  2  0
 10  2  1  0
 16 12  1  0
  9  4  1  0
M  CHG  1  10   1
M  END
>  <minimizedAffinity>  (1) 
-4.98431

>  <Compliance>  (1) 
84.0

$$$$
ligand
     RDKit          3D

 16 18  0  0  0  0  0  0  0  0999 V2000
   59.2422   30.9132   28.7675 C   0  0  0  0  0  0  0  0  0  0  0  0
   58.3561   31.6226   29.6936 C   0  0  0  0  0  0  0  0  0  0  0  0
   57.0554   31.4809   30.1343 C   0  0  0  0  0  0  0  0  0  0  0  0
   56.8057   32.4989   31.0279 N   0  0  0  0  0  0  0  0  0  0  0  0
   55.6410   32.7583   31.7195 C   0  0  0  0  0  0  0  0  0  0  0  0
   55.6343   33.8215   32.5458 C   0  0  0  0  0  0  0  0  0  0  0  0
   56.7984   34.6848   32.7241 C   0  0  0  0  0  0  0  0  0  0  0  0
   57.9394   34.4418   32.0554 C   0  0  0  0  0  0  0  0  0  0  0  0
   57.9140   33.2537   31.1458 C   0  0  0  0  0  0  0  0  0  0  0  0
   58.8536   32.7386   30.3512 N   0  0  0  0  0  0  0  0  0  0  0  0
   56.0454   30.5832   29.8644 N   0  0  0  0  0  0  0  0  0  0  0  0
   55.9304   29.2603   30.4367 C   0  0  0  0  0  0  0  0  0  0  0  0
   56.6368   28.1689   29.6147 C   0  0  0  0  0  0  0  0  0  0  0  0
   57.2268   27.1847   30.6271 C   0  0  0  0  0  0  0  0  0  0  0  0
   56.6343   27.5797   31.9716 C   0  0  0  0  0  0  0  0  0  0  0  0
   56.4917   29.0889   31.8505 C   0  0  0  0  0  0  0  0  0  0  0  0
  1  2  1  0
  2  3  2  0
  3 11  1  0
 11 12  1  0
 12 13  1  0
 13 14  1  0
 14 15  1  0
 15 16  1  0
  3  4  1  0
  4  5  1  0
  5  6  2  0
  6  7  1  0
  7  8  2  0
  8  9  1  0
  9 10  2  0
 10  2  1  0
 16 12  1  0
  9  4  1  0
M  CHG  1  10   1
M  END
>  <minimizedAffinity>  (2) 
-4.89264

>  <Compliance>  (2) 
84.0

$$$$
ligand
     RDKit          3D

 16 18  0  0  0  0  0  0  0  0999 V2000
   57.7126   29.6741   27.8728 C   0  0  0  0  0  0  0  0  0  0  0  0
   57.4137   30.3161   29.1552 C   0  0  0  0  0  0  0  0  0  0  0  0
   56.7354   29.9727   30.3077 C   0  0  0  0  0  0  0  0  0  0  0  0
   56.8152   31.0422   31.1718 N   0  0  0  0  0  0  0  0  0  0  0  0
   56.2843   31.1541   32.4398 C   0  0  0  0  0  0  0  0  0  0  0  0
   56.4951   32.3083   33.1006 C   0  0  0  0  0  0  0  0  0  0  0  0
   57.2518   33.4162   32.5243 C   0  0  0  0  0  0  0  0  0  0  0  0
   57.7743   33.3187   31.2892 C   0  0  0  0  0  0  0  0  0  0  0  0
   57.5223   32.0241   30.5820 C   0  0  0  0  0  0  0  0  0  0  0  0
   57.8892   31.6016   29.3710 N   0  0  0  0  0  0  0  0  0  0  0  0
   56.0488   28.8499   30.7161 N   0  0  0  0  0  0  0  0  0  0  0  0
   56.6400   27.5524   30.9569 C   0  0  0  0  0  0  0  0  0  0  0  0
   55.9087   26.7313   32.0325 C   0  0  0  0  0  0  0  0  0  0  0  0
   55.9652   25.2736   31.5706 C   0  0  0  0  0  0  0  0  0  0  0  0
   56.9354   25.2553   30.3988 C   0  0  0  0  0  0  0  0  0  0  0  0
   56.7120   26.6127   29.7507 C   0  0  0  0  0  0  0  0  0  0  0  0
  1  2  1  0
  2  3  2  0
  3 11  1  0
 11 12  1  0
 12 13  1  0
 13 14  1  0
 14 15  1  0
 15 16  1  0
  3  4  1  0
  4  5  1  0
  5  6  2  0
  6  7  1  0
  7  8  2  0
  8  9  1  0
  9 10  2  0
 10  2  1  0
 16 12  1  0
  9  4  1  0
M  CHG  1  10   1
M  END
>  <minimizedAffinity>  (3) 
-4.76733

>  <Compliance>  (3) 
84.0

$$$$
ligand
     RDKit          3D

 16 18  0  0  0  0  0  0  0  0999 V2000
   55.9802   35.9127   28.5908 C   0  0  0  0  0  0  0  0  0  0  0  0
   56.0117   34.9771   29.7177 C   0  0  0  0  0  0  0  0  0  0  0  0
   55.7718   35.0439   31.0756 C   0  0  0  0  0  0  0  0  0  0  0  0
   55.9803   33.7863   31.5973 N   0  0  0  0  0  0  0  0  0  0  0  0
   55.8608   33.3780   32.9092 C   0  0  0  0  0  0  0  0  0  0  0  0
   56.1182   32.0846   33.1819 C   0  0  0  0  0  0  0  0  0  0  0  0
   56.5104   31.1277   32.1510 C   0  0  0  0  0  0  0  0  0  0  0  0
   56.6300   31.5141   30.8687 C   0  0  0  0  0  0  0  0  0  0  0  0
   56.3372   32.9567   30.5991 C   0  0  0  0  0  0  0  0  0  0  0  0
   56.3591   33.6578   29.4644 N   0  0  0  0  0  0  0  0  0  0  0  0
   55.3955   36.0550   31.9329 N   0  0  0  0  0  0  0  0  0  0  0  0
   56.2382   37.1549   32.3462 C   0  0  0  0  0  0  0  0  0  0  0  0
   55.7436   37.8676   33.6163 C   0  0  0  0  0  0  0  0  0  0  0  0
   56.9964   38.2614   34.4019 C   0  0  0  0  0  0  0  0  0  0  0  0
   58.1640   38.0071   33.4602 C   0  0  0  0  0  0  0  0  0  0  0  0
   57.6961   36.8049   32.6549 C   0  0  0  0  0  0  0  0  0  0  0  0
  1  2  1  0
  2  3  2  0
  3 11  1  0
 11 12  1  0
 12 13  1  0
 13 14  1  0
 14 15  1  0
 15 16  1  0
  3  4  1  0
  4  5  1  0
  5  6  2  0
  6  7  1  0
  7  8  2  0
  8  9  1  0
  9 10  2  0
 10  2  1  0
 16 12  1  0
  9  4  1  0
M  CHG  1  10   1
M  END
>  <minimizedAffinity>  (4) 
-4.74853

>  <Compliance>  (4) 
84.0

$$$$
ligand
     RDKit          3D

 16 18  0  0  0  0  0  0  0  0999 V2000
   56.6718   33.1305   34.0658 C   0  0  0  0  0  0  0  0  0  0  0  0
   57.3163   33.8273   32.9499 C   0  0  0  0  0  0  0  0  0  0  0  0
   57.8533   33.4709   31.7289 C   0  0  0  0  0  0  0  0  0  0  0  0
   58.3189   34.6194   31.1279 N   0  0  0  0  0  0  0  0  0  0  0  0
   58.9345   34.7488   29.9006 C   0  0  0  0  0  0  0  0  0  0  0  0
   59.3059   35.9862   29.5207 C   0  0  0  0  0  0  0  0  0  0  0  0
   59.0796   37.1643   30.3532 C   0  0  0  0  0  0  0  0  0  0  0  0
   58.4803   37.0505   31.5515 C   0  0  0  0  0  0  0  0  0  0  0  0
   58.0801   35.6629   31.9439 C   0  0  0  0  0  0  0  0  0  0  0  0
   57.4773   35.2024   33.0414 N   0  0  0  0  0  0  0  0  0  0  0  0
   57.9982   32.2754   31.0589 N   0  0  0  0  0  0  0  0  0  0  0  0
   56.9236   31.3611   30.7426 C   0  0  0  0  0  0  0  0  0  0  0  0
   57.1678   30.5405   29.4647 C   0  0  0  0  0  0  0  0  0  0  0  0
   56.5845   29.1509   29.7300 C   0  0  0  0  0  0  0  0  0  0  0  0
   55.7999   29.2797   31.0271 C   0  0  0  0  0  0  0  0  0  0  0  0
   56.6000   30.3106   31.8080 C   0  0  0  0  0  0  0  0  0  0  0  0
  1  2  1  0
  2  3  2  0
  3 11  1  0
 11 12  1  0
 12 13  1  0
 13 14  1  0
 14 15  1  0
 15 16  1  0
  3  4  1  0
  4  5  1  0
  5  6  2  0
  6  7  1  0
  7  8  2  0
  8  9  1  0
  9 10  2  0
 10  2  1  0
 16 12  1  0
  9  4  1  0
M  CHG  1  10   1
M  END
>  <minimizedAffinity>  (5) 
-4.70134

>  <Compliance>  (5) 
84.0

$$$$
ligand
     RDKit          3D

 16 18  0  0  0  0  0  0  0  0999 V2000
   56.0382   28.9418   31.3409 C   0  0  0  0  0  0  0  0  0  0  0  0
   56.6355   29.6394   30.1996 C   0  0  0  0  0  0  0  0  0  0  0  0
   56.5445   30.8994   29.6427 C   0  0  0  0  0  0  0  0  0  0  0  0
   57.3797   30.9318   28.5480 N   0  0  0  0  0  0  0  0  0  0  0  0
   57.6114   31.9819   27.6844 C   0  0  0  0  0  0  0  0  0  0  0  0
   58.4797   31.7754   26.6760 C   0  0  0  0  0  0  0  0  0  0  0  0
   59.1646   30.5010   26.4782 C   0  0  0  0  0  0  0  0  0  0  0  0
   58.9469   29.4702   27.3137 C   0  0  0  0  0  0  0  0  0  0  0  0
   57.9772   29.7321   28.4230 C   0  0  0  0  0  0  0  0  0  0  0  0
   57.5408   28.9463   29.4087 N   0  0  0  0  0  0  0  0  0  0  0  0
   55.8287   32.0348   29.9548 N   0  0  0  0  0  0  0  0  0  0  0  0
   56.1429   32.9496   31.0297 C   0  0  0  0  0  0  0  0  0  0  0  0
   55.3554   32.6763   32.3224 C   0  0  0  0  0  0  0  0  0  0  0  0
   56.3138   32.9716   33.4782 C   0  0  0  0  0  0  0  0  0  0  0  0
   57.5206   33.6468   32.8439 C   0  0  0  0  0  0  0  0  0  0  0  0
   57.6057   32.9802   31.4797 C   0  0  0  0  0  0  0  0  0  0  0  0
  1  2  1  0
  2  3  2  0
  3 11  1  0
 11 12  1  0
 12 13  1  0
 13 14  1  0
 14 15  1  0
 15 16  1  0
  3  4  1  0
  4  5  1  0
  5  6  2  0
  6  7  1  0
  7  8  2  0
  8  9  1  0
  9 10  2  0
 10  2  1  0
 16 12  1  0
  9  4  1  0
M  CHG  1  10   1
M  END
>  <minimizedAffinity>  (6) 
-4.57894

>  <Compliance>  (6) 
84.0

$$$$
ligand
     RDKit          3D

 16 18  0  0  0  0  0  0  0  0999 V2000
   56.0024   29.9486   30.5199 C   0  0  0  0  0  0  0  0  0  0  0  0
   56.3654   31.3209   30.8819 C   0  0  0  0  0  0  0  0  0  0  0  0
   57.5335   32.0505   30.9786 C   0  0  0  0  0  0  0  0  0  0  0  0
   57.1968   33.3235   31.3826 N   0  0  0  0  0  0  0  0  0  0  0  0
   58.0357   34.3937   31.6127 C   0  0  0  0  0  0  0  0  0  0  0  0
   57.4705   35.5513   32.0051 C   0  0  0  0  0  0  0  0  0  0  0  0
   56.0294   35.6989   32.1887 C   0  0  0  0  0  0  0  0  0  0  0  0
   55.2016   34.6627   31.9672 C   0  0  0  0  0  0  0  0  0  0  0  0
   55.8608   33.3914   31.5325 C   0  0  0  0  0  0  0  0  0  0  0  0
   55.3482   32.1965   31.2341 N   0  0  0  0  0  0  0  0  0  0  0  0
   58.8637   31.7610   30.7647 N   0  0  0  0  0  0  0  0  0  0  0  0
   59.5262   31.7847   29.4796 C   0  0  0  0  0  0  0  0  0  0  0  0
   61.0611   31.8019   29.5770 C   0  0  0  0  0  0  0  0  0  0  0  0
   61.5736   30.9493   28.4143 C   0  0  0  0  0  0  0  0  0  0  0  0
   60.3587   30.6837   27.5379 C   0  0  0  0  0  0  0  0  0  0  0  0
   59.2217   30.6111   28.5451 C   0  0  0  0  0  0  0  0  0  0  0  0
  1  2  1  0
  2  3  2  0
  3 11  1  0
 11 12  1  0
 12 13  1  0
 13 14  1  0
 14 15  1  0
 15 16  1  0
  3  4  1  0
  4  5  1  0
  5  6  2  0
  6  7  1  0
  7  8  2  0
  8  9  1  0
  9 10  2  0
 10  2  1  0
 16 12  1  0
  9  4  1  0
M  CHG  1  10   1
M  END
>  <minimizedAffinity>  (7) 
-4.54100

>  <Compliance>  (7) 
84.0

$$$$
ligand
     RDKit          3D

 16 18  0  0  0  0  0  0  0  0999 V2000
   56.3664   31.9827   32.8419 C   0  0  0  0  0  0  0  0  0  0  0  0
   56.5199   30.8608   31.9125 C   0  0  0  0  0  0  0  0  0  0  0  0
   56.6182   30.7063   30.5441 C   0  0  0  0  0  0  0  0  0  0  0  0
   56.7472   29.3596   30.2855 N   0  0  0  0  0  0  0  0  0  0  0  0
   56.8743   28.7357   29.0622 C   0  0  0  0  0  0  0  0  0  0  0  0
   56.9875   27.3938   29.0594 C   0  0  0  0  0  0  0  0  0  0  0  0
   56.9793   26.6025   30.2865 C   0  0  0  0  0  0  0  0  0  0  0  0
   56.8562   27.1997   31.4850 C   0  0  0  0  0  0  0  0  0  0  0  0
   56.7325   28.6907   31.4536 C   0  0  0  0  0  0  0  0  0  0  0  0
   56.5978   29.5795   32.4393 N   0  0  0  0  0  0  0  0  0  0  0  0
   56.6095   31.5804   29.4788 N   0  0  0  0  0  0  0  0  0  0  0  0
   57.6381   32.5552   29.1913 C   0  0  0  0  0  0  0  0  0  0  0  0
   57.3897   33.9252   29.8449 C   0  0  0  0  0  0  0  0  0  0  0  0
   58.7633   34.4580   30.2581 C   0  0  0  0  0  0  0  0  0  0  0  0
   59.7741   33.5236   29.6101 C   0  0  0  0  0  0  0  0  0  0  0  0
   59.0574   32.1824   29.6270 C   0  0  0  0  0  0  0  0  0  0  0  0
  1  2  1  0
  2  3  2  0
  3 11  1  0
 11 12  1  0
 12 13  1  0
 13 14  1  0
 14 15  1  0
 15 16  1  0
  3  4  1  0
  4  5  1  0
  5  6  2  0
  6  7  1  0
  7  8  2  0
  8  9  1  0
  9 10  2  0
 10  2  1  0
 16 12  1  0
  9  4  1  0
M  CHG  1  10   1
M  END
>  <minimizedAffinity>  (8) 
-4.53855

>  <Compliance>  (8) 
84.0

$$$$
ligand
     RDKit          3D

 16 18  0  0  0  0  0  0  0  0999 V2000
   58.0353   34.2687   28.9155 C   0  0  0  0  0  0  0  0  0  0  0  0
   57.7731   35.0394   30.1335 C   0  0  0  0  0  0  0  0  0  0  0  0
   56.7808   35.0810   31.0924 C   0  0  0  0  0  0  0  0  0  0  0  0
   57.1259   36.0518   32.0065 N   0  0  0  0  0  0  0  0  0  0  0  0
   56.4344   36.4451   33.1331 C   0  0  0  0  0  0  0  0  0  0  0  0
   56.9749   37.4253   33.8816 C   0  0  0  0  0  0  0  0  0  0  0  0
   58.2417   38.0663   33.5402 C   0  0  0  0  0  0  0  0  0  0  0  0
   58.9249   37.6912   32.4445 C   0  0  0  0  0  0  0  0  0  0  0  0
   58.2976   36.6002   31.6347 C   0  0  0  0  0  0  0  0  0  0  0  0
   58.6988   36.0012   30.5122 N   0  0  0  0  0  0  0  0  0  0  0  0
   55.6054   34.3879   31.2846 N   0  0  0  0  0  0  0  0  0  0  0  0
   55.5068   33.0376   31.7924 C   0  0  0  0  0  0  0  0  0  0  0  0
   55.7833   31.9581   30.7321 C   0  0  0  0  0  0  0  0  0  0  0  0
   56.5276   30.8314   31.4520 C   0  0  0  0  0  0  0  0  0  0  0  0
   56.4319   31.1623   32.9339 C   0  0  0  0  0  0  0  0  0  0  0  0
   56.4496   32.6829   32.9450 C   0  0  0  0  0  0  0  0  0  0  0  0
  1  2  1  0
  2  3  2  0
  3 11  1  0
 11 12  1  0
 12 13  1  0
 13 14  1  0
 14 15  1  0
 15 16  1  0
  3  4  1  0
  4  5  1  0
  5  6  2  0
  6  7  1  0
  7  8  2  0
  8  9  1  0
  9 10  2  0
 10  2  1  0
 16 12  1  0
  9  4  1  0
M  CHG  1  10   1
M  END
>  <minimizedAffinity>  (9) 
-4.52850

>  <Compliance>  (9) 
84.0

$$$$
