ligand
     RDKit          3D

 16 18  0  0  0  0  0  0  0  0999 V2000
   56.7168   33.1455   28.3049 C   0  0  0  0  0  0  0  0  0  0  0  0
   56.6569   31.8487   28.9838 C   0  0  0  0  0  0  0  0  0  0  0  0
   56.0816   31.3528   30.1367 C   0  0  0  0  0  0  0  0  0  0  0  0
   56.4031   30.0161   30.2204 N   0  0  0  0  0  0  0  0  0  0  0  0
   56.0487   29.1149   31.2024 C   0  0  0  0  0  0  0  0  0  0  0  0
   56.4851   27.8480   31.0680 C   0  0  0  0  0  0  0  0  0  0  0  0
   57.3028   27.4148   29.9385 C   0  0  0  0  0  0  0  0  0  0  0  0
   57.6544   28.2844   28.9750 C   0  0  0  0  0  0  0  0  0  0  0  0
   57.1538   29.6833   29.1538 C   0  0  0  0  0  0  0  0  0  0  0  0
   57.3133   30.7736   28.4019 N   0  0  0  0  0  0  0  0  0  0  0  0
   55.3108   31.9054   31.1364 N   0  0  0  0  0  0  0  0  0  0  0  0
   55.7569   32.9125   32.0732 C   0  0  0  0  0  0  0  0  0  0  0  0
   57.2797   32.9228   32.2893 C   0  0  0  0  0  0  0  0  0  0  0  0
   57.6786   34.3905   32.4574 C   0  0  0  0  0  0  0  0  0  0  0  0
   56.3702   35.1546   32.5953 C   0  0  0  0  0  0  0  0  0  0  0  0
   55.4182   34.3614   31.7137 C   0  0  0  0  0  0  0  0  0  0  0  0
  1  2  1  0
  2  3  2  0
  3 11  1  0
 11 12  1  0
 12 13  1  0
 13 14  1  0
 14 15  1  0
 15 16  1  0
  3  4  1  0
  4  5  1  0
  5  6  2  0
  6  7  1  0
  7  8  2  0
  8  9  1  0
  9 10  2  0
 10  2  1  0
 16 12  1  0
  9  4  1  0
M  CHG  1  10   1
M  END
>  <minimizedAffinity>  (1) 
-4.98088

>  <Compliance>  (1) 
84.0

$$$$
ligand
     RDKit          3D

 16 18  0  0  0  0  0  0  0  0999 V2000
   59.2389   30.9334   28.7233 C   0  0  0  0  0  0  0  0  0  0  0  0
   58.3597   31.6462   29.6534 C   0  0  0  0  0  0  0  0  0  0  0  0
   57.0589   31.5125   30.0962 C   0  0  0  0  0  0  0  0  0  0  0  0
   56.8182   32.5292   30.9936 N   0  0  0  0  0  0  0  0  0  0  0  0
   55.6568   32.7948   31.6883 C   0  0  0  0  0  0  0  0  0  0  0  0
   55.6594   33.8552   32.5182 C   0  0  0  0  0  0  0  0  0  0  0  0
   56.8301   34.7095   32.6971 C   0  0  0  0  0  0  0  0  0  0  0  0
   57.9680   34.4604   32.0254 C   0  0  0  0  0  0  0  0  0  0  0  0
   57.9322   33.2756   31.1119 C   0  0  0  0  0  0  0  0  0  0  0  0
   58.8666   32.7563   30.3137 N   0  0  0  0  0  0  0  0  0  0  0  0
   56.0419   30.6230   29.8252 N   0  0  0  0  0  0  0  0  0  0  0  0
   55.9360   29.2868   30.3676 C   0  0  0  0  0  0  0  0  0  0  0  0
   56.6851   28.2255   29.5439 C   0  0  0  0  0  0  0  0  0  0  0  0
   57.2653   27.2316   30.5524 C   0  0  0  0  0  0  0  0  0  0  0  0
   56.6289   27.5882   31.8875 C   0  0  0  0  0  0  0  0  0  0  0  0
   56.4614   29.0967   31.7927 C   0  0  0  0  0  0  0  0  0  0  0  0
  1  2  1  0
  2  3  2  0
  3 11  1  0
 11 12  1  0
 12 13  1  0
 13 14  1  0
 14 15  1  0
 15 16  1  0
  3  4  1  0
  4  5  1  0
  5  6  2  0
  6  7  1  0
  7  8  2  0
  8  9  1  0
  9 10  2  0
 10  2  1  0
 16 12  1  0
  9  4  1  0
M  CHG  1  10   1
M  END
>  <minimizedAffinity>  (2) 
-4.86259

>  <Compliance>  (2) 
84.0

$$$$
ligand
     RDKit          3D

 16 18  0  0  0  0  0  0  0  0999 V2000
   57.1010   33.7884   35.4898 C   0  0  0  0  0  0  0  0  0  0  0  0
   56.9839   33.5177   34.0548 C   0  0  0  0  0  0  0  0  0  0  0  0
   57.3607   34.1504   32.8871 C   0  0  0  0  0  0  0  0  0  0  0  0
   56.9469   33.3634   31.8352 N   0  0  0  0  0  0  0  0  0  0  0  0
   57.1036   33.5955   30.4848 C   0  0  0  0  0  0  0  0  0  0  0  0
   56.6110   32.6735   29.6359 C   0  0  0  0  0  0  0  0  0  0  0  0
   55.9326   31.4652   30.0963 C   0  0  0  0  0  0  0  0  0  0  0  0
   55.7740   31.2280   31.4104 C   0  0  0  0  0  0  0  0  0  0  0  0
   56.3323   32.2713   32.3266 C   0  0  0  0  0  0  0  0  0  0  0  0
   56.3481   32.3498   33.6583 N   0  0  0  0  0  0  0  0  0  0  0  0
   58.0184   35.3281   32.6054 N   0  0  0  0  0  0  0  0  0  0  0  0
   57.4573   36.6526   32.7533 C   0  0  0  0  0  0  0  0  0  0  0  0
   55.9783   36.7456   32.3413 C   0  0  0  0  0  0  0  0  0  0  0  0
   55.3238   37.7290   33.3140 C   0  0  0  0  0  0  0  0  0  0  0  0
   56.4720   38.3676   34.0812 C   0  0  0  0  0  0  0  0  0  0  0  0
   57.4924   37.2432   34.1651 C   0  0  0  0  0  0  0  0  0  0  0  0
  1  2  1  0
  2  3  2  0
  3 11  1  0
 11 12  1  0
 12 13  1  0
 13 14  1  0
 14 15  1  0
 15 16  1  0
  3  4  1  0
  4  5  1  0
  5  6  2  0
  6  7  1  0
  7  8  2  0
  8  9  1  0
  9 10  2  0
 10  2  1  0
 16 12  1  0
  9  4  1  0
M  CHG  1  10   1
M  END
>  <minimizedAffinity>  (3) 
-4.78571

>  <Compliance>  (3) 
84.0

$$$$
ligand
     RDKit          3D

 16 18  0  0  0  0  0  0  0  0999 V2000
   55.9848   35.9869   28.6606 C   0  0  0  0  0  0  0  0  0  0  0  0
   56.0145   35.0216   29.7621 C   0  0  0  0  0  0  0  0  0  0  0  0
   55.7694   35.0514   31.1204 C   0  0  0  0  0  0  0  0  0  0  0  0
   55.9791   33.7808   31.6090 N   0  0  0  0  0  0  0  0  0  0  0  0
   55.8559   33.3372   32.9091 C   0  0  0  0  0  0  0  0  0  0  0  0
   56.1156   32.0377   33.1480 C   0  0  0  0  0  0  0  0  0  0  0  0
   56.5142   31.1097   32.0934 C   0  0  0  0  0  0  0  0  0  0  0  0
   56.6375   31.5306   30.8223 C   0  0  0  0  0  0  0  0  0  0  0  0
   56.3420   32.9791   30.5904 C   0  0  0  0  0  0  0  0  0  0  0  0
   56.3663   33.7104   29.4749 N   0  0  0  0  0  0  0  0  0  0  0  0
   55.3871   36.0382   32.0030 N   0  0  0  0  0  0  0  0  0  0  0  0
   56.2099   37.1541   32.4137 C   0  0  0  0  0  0  0  0  0  0  0  0
   55.6631   37.9055   33.6394 C   0  0  0  0  0  0  0  0  0  0  0  0
   56.8825   38.3292   34.4611 C   0  0  0  0  0  0  0  0  0  0  0  0
   58.0874   38.0492   33.5753 C   0  0  0  0  0  0  0  0  0  0  0  0
   57.6552   36.8199   32.7913 C   0  0  0  0  0  0  0  0  0  0  0  0
  1  2  1  0
  2  3  2  0
  3 11  1  0
 11 12  1  0
 12 13  1  0
 13 14  1  0
 14 15  1  0
 15 16  1  0
  3  4  1  0
  4  5  1  0
  5  6  2  0
  6  7  1  0
  7  8  2  0
  8  9  1  0
  9 10  2  0
 10  2  1  0
 16 12  1  0
  9  4  1  0
M  CHG  1  10   1
M  END
>  <minimizedAffinity>  (4) 
-4.76662

>  <Compliance>  (4) 
84.0

$$$$
ligand
     RDKit          3D

 16 18  0  0  0  0  0  0  0  0999 V2000
   57.8294   29.6462   27.8936 C   0  0  0  0  0  0  0  0  0  0  0  0
   57.4940   30.2906   29.1658 C   0  0  0  0  0  0  0  0  0  0  0  0
   56.7798   29.9507   30.2974 C   0  0  0  0  0  0  0  0  0  0  0  0
   56.8371   31.0209   31.1626 N   0  0  0  0  0  0  0  0  0  0  0  0
   56.2682   31.1359   32.4137 C   0  0  0  0  0  0  0  0  0  0  0  0
   56.4630   32.2901   33.0796 C   0  0  0  0  0  0  0  0  0  0  0  0
   57.2408   33.3947   32.5255 C   0  0  0  0  0  0  0  0  0  0  0  0
   57.8003   33.2941   31.3070 C   0  0  0  0  0  0  0  0  0  0  0  0
   57.5652   31.9997   30.5936 C   0  0  0  0  0  0  0  0  0  0  0  0
   57.9673   31.5747   29.3947 N   0  0  0  0  0  0  0  0  0  0  0  0
   56.0771   28.8308   30.6857 N   0  0  0  0  0  0  0  0  0  0  0  0
   56.6541   27.5279   30.9317 C   0  0  0  0  0  0  0  0  0  0  0  0
   55.9166   26.7210   32.0138 C   0  0  0  0  0  0  0  0  0  0  0  0
   55.9550   25.2602   31.5594 C   0  0  0  0  0  0  0  0  0  0  0  0
   56.9215   25.2246   30.3849 C   0  0  0  0  0  0  0  0  0  0  0  0
   56.7117   26.5811   29.7303 C   0  0  0  0  0  0  0  0  0  0  0  0
  1  2  1  0
  2  3  2  0
  3 11  1  0
 11 12  1  0
 12 13  1  0
 13 14  1  0
 14 15  1  0
 15 16  1  0
  3  4  1  0
  4  5  1  0
  5  6  2  0
  6  7  1  0
  7  8  2  0
  8  9  1  0
  9 10  2  0
 10  2  1  0
 16 12  1  0
  9  4  1  0
M  CHG  1  10   1
M  END
>  <minimizedAffinity>  (5) 
-4.76428

>  <Compliance>  (5) 
84.0

$$$$
ligand
     RDKit          3D

 16 18  0  0  0  0  0  0  0  0999 V2000
   56.7001   33.1468   34.0368 C   0  0  0  0  0  0  0  0  0  0  0  0
   57.3483   33.8222   32.9100 C   0  0  0  0  0  0  0  0  0  0  0  0
   57.8819   33.4438   31.6942 C   0  0  0  0  0  0  0  0  0  0  0  0
   58.3546   34.5800   31.0756 N   0  0  0  0  0  0  0  0  0  0  0  0
   58.9701   34.6867   29.8460 C   0  0  0  0  0  0  0  0  0  0  0  0
   59.3494   35.9157   29.4471 C   0  0  0  0  0  0  0  0  0  0  0  0
   59.1318   37.1078   30.2619 C   0  0  0  0  0  0  0  0  0  0  0  0
   58.5327   37.0161   31.4622 C   0  0  0  0  0  0  0  0  0  0  0  0
   58.1235   35.6373   31.8759 C   0  0  0  0  0  0  0  0  0  0  0  0
   57.5186   35.1975   32.9806 N   0  0  0  0  0  0  0  0  0  0  0  0
   58.0182   32.2375   31.0422 N   0  0  0  0  0  0  0  0  0  0  0  0
   56.9370   31.3264   30.7391 C   0  0  0  0  0  0  0  0  0  0  0  0
   57.1742   30.4874   29.4720 C   0  0  0  0  0  0  0  0  0  0  0  0
   56.5816   29.1055   29.7562 C   0  0  0  0  0  0  0  0  0  0  0  0
   55.7992   29.2569   31.0522 C   0  0  0  0  0  0  0  0  0  0  0  0
   56.6072   30.2925   31.8186 C   0  0  0  0  0  0  0  0  0  0  0  0
  1  2  1  0
  2  3  2  0
  3 11  1  0
 11 12  1  0
 12 13  1  0
 13 14  1  0
 14 15  1  0
 15 16  1  0
  3  4  1  0
  4  5  1  0
  5  6  2  0
  6  7  1  0
  7  8  2  0
  8  9  1  0
  9 10  2  0
 10  2  1  0
 16 12  1  0
  9  4  1  0
M  CHG  1  10   1
M  END
>  <minimizedAffinity>  (6) 
-4.69822

>  <Compliance>  (6) 
84.0

$$$$
ligand
     RDKit          3D

 16 18  0  0  0  0  0  0  0  0999 V2000
   56.6102   27.6541   33.5400 C   0  0  0  0  0  0  0  0  0  0  0  0
   56.7473   27.8483   32.0944 C   0  0  0  0  0  0  0  0  0  0  0  0
   56.5316   28.8796   31.2023 C   0  0  0  0  0  0  0  0  0  0  0  0
   56.8565   28.4178   29.9460 N   0  0  0  0  0  0  0  0  0  0  0  0
   56.7970   29.0972   28.7473 C   0  0  0  0  0  0  0  0  0  0  0  0
   57.1694   28.4310   27.6379 C   0  0  0  0  0  0  0  0  0  0  0  0
   57.6229   27.0434   27.6703 C   0  0  0  0  0  0  0  0  0  0  0  0
   57.6853   26.3708   28.8330 C   0  0  0  0  0  0  0  0  0  0  0  0
   57.2649   27.1391   30.0465 C   0  0  0  0  0  0  0  0  0  0  0  0
   57.2057   26.7841   31.3311 N   0  0  0  0  0  0  0  0  0  0  0  0
   56.0857   30.1773   31.3287 N   0  0  0  0  0  0  0  0  0  0  0  0
   56.7869   31.2365   32.0197 C   0  0  0  0  0  0  0  0  0  0  0  0
   57.7794   32.0028   31.1288 C   0  0  0  0  0  0  0  0  0  0  0  0
   57.7163   33.4647   31.5766 C   0  0  0  0  0  0  0  0  0  0  0  0
   56.9030   33.4618   32.8624 C   0  0  0  0  0  0  0  0  0  0  0  0
   55.9117   32.3310   32.6356 C   0  0  0  0  0  0  0  0  0  0  0  0
  1  2  1  0
  2  3  2  0
  3 11  1  0
 11 12  1  0
 12 13  1  0
 13 14  1  0
 14 15  1  0
 15 16  1  0
  3  4  1  0
  4  5  1  0
  5  6  2  0
  6  7  1  0
  7  8  2  0
  8  9  1  0
  9 10  2  0
 10  2  1  0
 16 12  1  0
  9  4  1  0
M  CHG  1  10   1
M  END
>  <minimizedAffinity>  (7) 
-4.59182

>  <Compliance>  (7) 
84.0

$$$$
ligand
     RDKit          3D

 16 18  0  0  0  0  0  0  0  0999 V2000
   55.5148   32.5507   33.0973 C   0  0  0  0  0  0  0  0  0  0  0  0
   56.0651   32.3857   31.7497 C   0  0  0  0  0  0  0  0  0  0  0  0
   56.7625   31.4065   31.0707 C   0  0  0  0  0  0  0  0  0  0  0  0
   56.9950   31.8702   29.7948 N   0  0  0  0  0  0  0  0  0  0  0  0
   57.6569   31.2347   28.7652 C   0  0  0  0  0  0  0  0  0  0  0  0
   57.7605   31.8929   27.5950 C   0  0  0  0  0  0  0  0  0  0  0  0
   57.2046   33.2279   27.3931 C   0  0  0  0  0  0  0  0  0  0  0  0
   56.5570   33.8574   28.3894 C   0  0  0  0  0  0  0  0  0  0  0  0
   56.4593   33.0993   29.6760 C   0  0  0  0  0  0  0  0  0  0  0  0
   55.8964   33.4214   30.8418 N   0  0  0  0  0  0  0  0  0  0  0  0
   57.2309   30.1556   31.4091 N   0  0  0  0  0  0  0  0  0  0  0  0
   56.4428   28.9432   31.4146 C   0  0  0  0  0  0  0  0  0  0  0  0
   56.6746   28.0511   30.1832 C   0  0  0  0  0  0  0  0  0  0  0  0
   56.5998   26.6061   30.6811 C   0  0  0  0  0  0  0  0  0  0  0  0
   56.0758   26.6934   32.1068 C   0  0  0  0  0  0  0  0  0  0  0  0
   56.6611   28.0056   32.6048 C   0  0  0  0  0  0  0  0  0  0  0  0
  1  2  1  0
  2  3  2  0
  3 11  1  0
 11 12  1  0
 12 13  1  0
 13 14  1  0
 14 15  1  0
 15 16  1  0
  3  4  1  0
  4  5  1  0
  5  6  2  0
  6  7  1  0
  7  8  2  0
  8  9  1  0
  9 10  2  0
 10  2  1  0
 16 12  1  0
  9  4  1  0
M  CHG  1  10   1
M  END
>  <minimizedAffinity>  (8) 
-4.58895

>  <Compliance>  (8) 
84.0

$$$$
ligand
     RDKit          3D

 16 18  0  0  0  0  0  0  0  0999 V2000
   58.1127   33.7921   28.7168 C   0  0  0  0  0  0  0  0  0  0  0  0
   57.7937   34.5755   29.9130 C   0  0  0  0  0  0  0  0  0  0  0  0
   56.7823   34.5930   30.8526 C   0  0  0  0  0  0  0  0  0  0  0  0
   57.0670   35.5968   31.7517 N   0  0  0  0  0  0  0  0  0  0  0  0
   56.3375   35.9824   32.8568 C   0  0  0  0  0  0  0  0  0  0  0  0
   56.8201   37.0009   33.5938 C   0  0  0  0  0  0  0  0  0  0  0  0
   58.0638   37.6901   33.2617 C   0  0  0  0  0  0  0  0  0  0  0  0
   58.7836   37.3230   32.1869 C   0  0  0  0  0  0  0  0  0  0  0  0
   58.2204   36.1888   31.3895 C   0  0  0  0  0  0  0  0  0  0  0  0
   58.6689   35.5850   30.2877 N   0  0  0  0  0  0  0  0  0  0  0  0
   55.6350   33.8527   31.0383 N   0  0  0  0  0  0  0  0  0  0  0  0
   55.5934   32.4723   31.4669 C   0  0  0  0  0  0  0  0  0  0  0  0
   55.7109   31.4637   30.3116 C   0  0  0  0  0  0  0  0  0  0  0  0
   56.5354   30.2917   30.8483 C   0  0  0  0  0  0  0  0  0  0  0  0
   56.6473   30.5256   32.3475 C   0  0  0  0  0  0  0  0  0  0  0  0
   56.6817   32.0422   32.4538 C   0  0  0  0  0  0  0  0  0  0  0  0
  1  2  1  0
  2  3  2  0
  3 11  1  0
 11 12  1  0
 12 13  1  0
 13 14  1  0
 14 15  1  0
 15 16  1  0
  3  4  1  0
  4  5  1  0
  5  6  2  0
  6  7  1  0
  7  8  2  0
  8  9  1  0
  9 10  2  0
 10  2  1  0
 16 12  1  0
  9  4  1  0
M  CHG  1  10   1
M  END
>  <minimizedAffinity>  (9) 
-4.58346

>  <Compliance>  (9) 
84.0

$$$$
