ligand


 18 19  0  0  0  0  0  0  0  0999 V2000
   58.0247   30.9892   30.2336 N   0  0  0  0  0  0  0  0  0  0  0  0
   56.7351   30.3897   29.9109 C   0  0  0  0  0  0  0  0  0  0  0  0
   58.2831   30.7478   31.2010 H   0  0  0  0  0  0  0  0  0  0  0  0
   58.7416   30.6303   29.5870 H   0  0  0  0  0  0  0  0  0  0  0  0
   57.9602   32.0129   30.1408 H   0  0  0  0  0  0  0  0  0  0  0  0
   56.6716   28.9202   30.3122 C   0  0  0  0  0  0  0  0  0  0  0  0
   56.3629   28.5660   31.6430 C   0  0  0  0  0  0  0  0  0  0  0  0
   56.3049   27.2108   32.0227 C   0  0  0  0  0  0  0  0  0  0  0  0
   56.5585   26.2011   31.0746 C   0  0  0  0  0  0  0  0  0  0  0  0
   56.8708   26.5472   29.7460 C   0  0  0  0  0  0  0  0  0  0  0  0
   56.9282   27.9020   29.3660 C   0  0  0  0  0  0  0  0  0  0  0  0
   55.5874   31.1860   30.5664 C   0  0  0  0  0  0  0  0  0  0  0  0
   56.0574   32.3317   31.4499 C   0  0  0  0  0  0  0  0  0  0  0  0
   56.2232   32.1384   32.8384 C   0  0  0  0  0  0  0  0  0  0  0  0
   56.6649   33.1995   33.6523 C   0  0  0  0  0  0  0  0  0  0  0  0
   56.9430   34.4568   33.0827 C   0  0  0  0  0  0  0  0  0  0  0  0
   56.7787   34.6533   31.6981 C   0  0  0  0  0  0  0  0  0  0  0  0
   56.3356   33.5936   30.8832 C   0  0  0  0  0  0  0  0  0  0  0  0
  2  1  1  0  0  0
  2 12  1  0  0  0
  2  6  1  0  0  0
 12 13  1  0  0  0
 13 14  2  0  0  0
 13 18  1  0  0  0
 14 15  1  0  0  0
 15 16  2  0  0  0
 16 17  1  0  0  0
 17 18  2  0  0  0
  6  7  2  0  0  0
  6 11  1  0  0  0
  7  8  1  0  0  0
  8  9  2  0  0  0
  9 10  1  0  0  0
 10 11  2  0  0  0
  1  3  1  0  0  0
  1  4  1  0  0  0
  1  5  1  0  0  0
M  CHG 1   1   1
M  END
> <minimizedAffinity>
-5.10750

> <minimizedRMSD>
1.09305

$$$$
