ligand
     RDKit          3D

  6  6  0  0  0  0  0  0  0  0999 V2000
   56.5932   30.2889   32.5565 C   0  0  0  0  0  0  0  0  0  0  0  0
   56.4210   29.3365   31.5412 C   0  0  0  0  0  0  0  0  0  0  0  0
   56.0054   29.6965   30.2499 C   0  0  0  0  0  0  0  0  0  0  0  0
   55.7858   31.0719   30.0420 C   0  0  0  0  0  0  0  0  0  0  0  0
   55.9546   32.0398   31.0416 C   0  0  0  0  0  0  0  0  0  0  0  0
   56.3521   31.6443   32.3182 C   0  0  0  0  0  0  0  0  0  0  0  0
  1  2  2  0
  2  3  1  0
  3  4  2  0
  4  5  1  0
  5  6  2  0
  6  1  1  0
M  END
>  <minimizedAffinity>  (1) 
-2.76182

>  <Compliance>  (1) 
85.18518518518519

$$$$
ligand
     RDKit          3D

  6  6  0  0  0  0  0  0  0  0999 V2000
   57.6380   33.8887   32.3478 C   0  0  0  0  0  0  0  0  0  0  0  0
   57.9115   32.9742   31.3199 C   0  0  0  0  0  0  0  0  0  0  0  0
   57.3111   31.7064   31.2766 C   0  0  0  0  0  0  0  0  0  0  0  0
   56.4123   31.4219   32.3228 C   0  0  0  0  0  0  0  0  0  0  0  0
   56.1230   32.3220   33.3574 C   0  0  0  0  0  0  0  0  0  0  0  0
   56.7511   33.5668   33.3783 C   0  0  0  0  0  0  0  0  0  0  0  0
  1  2  2  0
  2  3  1  0
  3  4  2  0
  4  5  1  0
  5  6  2  0
  6  1  1  0
M  END
>  <minimizedAffinity>  (2) 
-2.75357

>  <Compliance>  (2) 
85.18518518518519

$$$$
ligand
     RDKit          3D

  6  6  0  0  0  0  0  0  0  0999 V2000
   57.6456   33.9351   32.3863 C   0  0  0  0  0  0  0  0  0  0  0  0
   56.7511   33.5806   33.4071 C   0  0  0  0  0  0  0  0  0  0  0  0
   56.0936   32.3408   33.4189 C   0  0  0  0  0  0  0  0  0  0  0  0
   56.4005   31.4783   32.3487 C   0  0  0  0  0  0  0  0  0  0  0  0
   57.2928   31.8117   31.3207 C   0  0  0  0  0  0  0  0  0  0  0  0
   57.9154   33.0593   31.3317 C   0  0  0  0  0  0  0  0  0  0  0  0
  1  2  2  0
  2  3  1  0
  3  4  2  0
  4  5  1  0
  5  6  2  0
  6  1  1  0
M  END
>  <minimizedAffinity>  (3) 
-2.75295

>  <Compliance>  (3) 
85.18518518518519

$$$$
ligand
     RDKit          3D

  6  6  0  0  0  0  0  0  0  0999 V2000
   56.4010   31.4813   32.2451 C   0  0  0  0  0  0  0  0  0  0  0  0
   56.6061   30.1092   32.4522 C   0  0  0  0  0  0  0  0  0  0  0  0
   56.4108   29.1679   31.4297 C   0  0  0  0  0  0  0  0  0  0  0  0
   56.0086   29.6935   30.1866 C   0  0  0  0  0  0  0  0  0  0  0  0
   55.8008   31.0605   29.9578 C   0  0  0  0  0  0  0  0  0  0  0  0
   55.9877   31.9660   31.0016 C   0  0  0  0  0  0  0  0  0  0  0  0
  1  2  2  0
  2  3  1  0
  3  4  2  0
  4  5  1  0
  5  6  2  0
  6  1  1  0
M  END
>  <minimizedAffinity>  (4) 
-2.74981

>  <Compliance>  (4) 
85.18518518518519

$$$$
ligand
     RDKit          3D

  6  6  0  0  0  0  0  0  0  0999 V2000
   57.2324   31.8248   31.3693 C   0  0  0  0  0  0  0  0  0  0  0  0
   56.3474   31.5201   32.4141 C   0  0  0  0  0  0  0  0  0  0  0  0
   56.1046   32.4178   33.4652 C   0  0  0  0  0  0  0  0  0  0  0  0
   56.7971   33.6420   33.3931 C   0  0  0  0  0  0  0  0  0  0  0  0
   57.6832   33.9671   32.3571 C   0  0  0  0  0  0  0  0  0  0  0  0
   57.9138   33.0441   31.3378 C   0  0  0  0  0  0  0  0  0  0  0  0
  1  2  2  0
  2  3  1  0
  3  4  2  0
  4  5  1  0
  5  6  2  0
  6  1  1  0
M  END
>  <minimizedAffinity>  (5) 
-2.74250

>  <Compliance>  (5) 
85.18518518518519

$$$$
ligand
     RDKit          3D

  6  6  0  0  0  0  0  0  0  0999 V2000
   56.1213   32.3711   33.3362 C   0  0  0  0  0  0  0  0  0  0  0  0
   56.7597   33.6201   33.3265 C   0  0  0  0  0  0  0  0  0  0  0  0
   57.6795   33.9746   32.3276 C   0  0  0  0  0  0  0  0  0  0  0  0
   57.9072   33.0010   31.3358 C   0  0  0  0  0  0  0  0  0  0  0  0
   57.2781   31.7486   31.3254 C   0  0  0  0  0  0  0  0  0  0  0  0
   56.3824   31.4234   32.3434 C   0  0  0  0  0  0  0  0  0  0  0  0
  1  2  2  0
  2  3  1  0
  3  4  2  0
  4  5  1  0
  5  6  2  0
  6  1  1  0
M  END
>  <minimizedAffinity>  (6) 
-2.74012

>  <Compliance>  (6) 
85.18518518518519

$$$$
ligand
     RDKit          3D

  6  6  0  0  0  0  0  0  0  0999 V2000
   56.3957   29.3217   31.3762 C   0  0  0  0  0  0  0  0  0  0  0  0
   56.6100   30.1265   32.5049 C   0  0  0  0  0  0  0  0  0  0  0  0
   56.4096   31.5152   32.4740 C   0  0  0  0  0  0  0  0  0  0  0  0
   55.9703   32.0400   31.2431 C   0  0  0  0  0  0  0  0  0  0  0  0
   55.7476   31.2535   30.1046 C   0  0  0  0  0  0  0  0  0  0  0  0
   55.9733   29.8790   30.1666 C   0  0  0  0  0  0  0  0  0  0  0  0
  1  2  2  0
  2  3  1  0
  3  4  2  0
  4  5  1  0
  5  6  2  0
  6  1  1  0
M  END
>  <minimizedAffinity>  (7) 
-2.73722

>  <Compliance>  (7) 
85.18518518518519

$$$$
ligand
     RDKit          3D

  6  6  0  0  0  0  0  0  0  0999 V2000
   56.3436   31.4857   32.4105 C   0  0  0  0  0  0  0  0  0  0  0  0
   57.2357   31.7454   31.3596 C   0  0  0  0  0  0  0  0  0  0  0  0
   57.9340   32.9589   31.2628 C   0  0  0  0  0  0  0  0  0  0  0  0
   57.6878   33.8873   32.2928 C   0  0  0  0  0  0  0  0  0  0  0  0
   56.8029   33.6468   33.3528 C   0  0  0  0  0  0  0  0  0  0  0  0
   56.1128   32.4364   33.4080 C   0  0  0  0  0  0  0  0  0  0  0  0
  1  2  2  0
  2  3  1  0
  3  4  2  0
  4  5  1  0
  5  6  2  0
  6  1  1  0
M  END
>  <minimizedAffinity>  (8) 
-2.73686

>  <Compliance>  (8) 
85.18518518518519

$$$$
ligand
     RDKit          3D

  6  6  0  0  0  0  0  0  0  0999 V2000
   56.3765   29.8344   31.4950 C   0  0  0  0  0  0  0  0  0  0  0  0
   56.6982   29.2442   32.7262 C   0  0  0  0  0  0  0  0  0  0  0  0
   56.9760   27.8734   32.8409 C   0  0  0  0  0  0  0  0  0  0  0  0
   56.9214   27.1382   31.6410 C   0  0  0  0  0  0  0  0  0  0  0  0
   56.6048   27.7087   30.4005 C   0  0  0  0  0  0  0  0  0  0  0  0
   56.3175   29.0711   30.3263 C   0  0  0  0  0  0  0  0  0  0  0  0
  1  2  2  0
  2  3  1  0
  3  4  2  0
  4  5  1  0
  5  6  2  0
  6  1  1  0
M  END
>  <minimizedAffinity>  (9) 
-2.73295

>  <Compliance>  (9) 
85.18518518518519

$$$$
