ligand
     RDKit          3D

 29 32  0  0  0  0  0  0  0  0999 V2000
   56.0029   32.0085   28.4285 O   0  0  0  0  0  0  0  0  0  0  0  0
   57.1286   31.7545   28.8519 C   0  0  0  0  0  0  0  0  0  0  0  0
   57.4143   31.0335   30.0010 N   0  0  0  0  0  0  0  0  0  0  0  0
   58.3728   32.1878   28.1068 C   0  0  0  0  0  0  0  0  0  0  0  0
   59.5949   31.4729   28.6257 C   0  0  1  0  0  0  0  0  0  0  0  0
   60.3360   31.0258   27.4959 O   0  0  0  0  0  0  0  0  0  0  0  0
   61.5790   30.5551   27.8212 C   0  0  0  0  0  0  0  0  0  0  0  0
   62.1788   29.6471   26.9502 C   0  0  0  0  0  0  0  0  0  0  0  0
   63.4596   29.1674   27.2267 C   0  0  0  0  0  0  0  0  0  0  0  0
   64.1434   29.6069   28.3620 C   0  0  0  0  0  0  0  0  0  0  0  0
   63.5513   30.5315   29.2230 C   0  0  0  0  0  0  0  0  0  0  0  0
   62.2668   31.0021   28.9489 C   0  0  0  0  0  0  0  0  0  0  0  0
   61.6824   31.9709   29.7725 N   0  0  0  0  0  0  0  0  0  0  0  0
   60.3684   32.3579   29.6060 C   0  0  0  0  0  0  0  0  0  0  0  0
   59.8489   33.2720   30.2421 O   0  0  0  0  0  0  0  0  0  0  0  0
   56.3974   30.4845   30.8533 C   0  0  1  0  0  0  0  0  0  0  0  0
   56.5050   29.0026   30.8269 C   0  0  0  0  0  0  0  0  0  0  0  0
   56.3711   28.2589   32.0021 C   0  0  0  0  0  0  0  0  0  0  0  0
   56.4703   26.8598   31.9852 C   0  0  0  0  0  0  0  0  0  0  0  0
   56.7094   26.1480   30.7995 C   0  0  0  0  0  0  0  0  0  0  0  0
   56.8534   26.9306   29.6376 C   0  0  0  0  0  0  0  0  0  0  0  0
   56.7604   28.3290   29.6330 C   0  0  0  0  0  0  0  0  0  0  0  0
   56.6136   31.0441   32.2695 C   0  0  0  0  0  0  0  0  0  0  0  0
   56.4347   32.5173   32.3465 C   0  0  0  0  0  0  0  0  0  0  0  0
   57.4763   33.3380   32.7864 C   0  0  0  0  0  0  0  0  0  0  0  0
   57.3156   34.7295   32.8609 C   0  0  0  0  0  0  0  0  0  0  0  0
   56.1120   35.3568   32.5035 C   0  0  0  0  0  0  0  0  0  0  0  0
   55.0800   34.4977   32.0788 C   0  0  0  0  0  0  0  0  0  0  0  0
   55.2189   33.1054   31.9997 C   0  0  0  0  0  0  0  0  0  0  0  0
  1  2  2  0
  2  4  1  0
  2  3  1  0
  5  4  1  6
  5  6  1  0
  5 14  1  0
  6  7  1  0
  7  8  2  0
  7 12  1  0
  8  9  1  0
  9 10  2  0
 10 11  1  0
 11 12  2  0
 12 13  1  0
 13 14  1  0
 14 15  2  0
  3 16  1  0
 16 23  1  1
 16 17  1  0
 23 24  1  0
 24 25  2  0
 24 29  1  0
 25 26  1  0
 26 27  2  0
 27 28  1  0
 28 29  2  0
 17 18  2  0
 17 22  1  0
 18 19  1  0
 19 20  2  0
 20 21  1  0
 21 22  2  0
M  END
>  <minimizedAffinity>  (1) 
-7.08910

>  <Compliance>  (1) 
100.0

$$$$
ligand
     RDKit          3D

 29 32  0  0  0  0  0  0  0  0999 V2000
   55.8054   31.7295   28.6644 O   0  0  0  0  0  0  0  0  0  0  0  0
   56.9255   31.8379   29.1591 C   0  0  0  0  0  0  0  0  0  0  0  0
   57.2595   31.5416   30.4715 N   0  0  0  0  0  0  0  0  0  0  0  0
   58.1151   32.2872   28.3382 C   0  0  0  0  0  0  0  0  0  0  0  0
   58.3939   33.7551   28.5419 C   0  0  1  0  0  0  0  0  0  0  0  0
   57.1386   34.4072   28.6989 O   0  0  0  0  0  0  0  0  0  0  0  0
   57.2564   35.7067   29.1106 C   0  0  0  0  0  0  0  0  0  0  0  0
   56.2116   36.5801   28.8136 C   0  0  0  0  0  0  0  0  0  0  0  0
   56.2759   37.9059   29.2438 C   0  0  0  0  0  0  0  0  0  0  0  0
   57.3742   38.3515   29.9819 C   0  0  0  0  0  0  0  0  0  0  0  0
   58.4106   37.4720   30.2969 C   0  0  0  0  0  0  0  0  0  0  0  0
   58.3478   36.1494   29.8573 C   0  0  0  0  0  0  0  0  0  0  0  0
   59.3523   35.2421   30.2125 N   0  0  0  0  0  0  0  0  0  0  0  0
   59.3879   33.9670   29.6862 C   0  0  0  0  0  0  0  0  0  0  0  0
   60.1932   33.1113   30.0459 O   0  0  0  0  0  0  0  0  0  0  0  0
   56.3067   31.0598   31.4318 C   0  0  1  0  0  0  0  0  0  0  0  0
   56.4671   29.5883   31.5625 C   0  0  0  0  0  0  0  0  0  0  0  0
   56.7623   29.0124   32.8008 C   0  0  0  0  0  0  0  0  0  0  0  0
   56.9143   27.6242   32.9325 C   0  0  0  0  0  0  0  0  0  0  0  0
   56.7812   26.7568   31.8373 C   0  0  0  0  0  0  0  0  0  0  0  0
   56.4980   27.3730   30.6030 C   0  0  0  0  0  0  0  0  0  0  0  0
   56.3450   28.7576   30.4492 C   0  0  0  0  0  0  0  0  0  0  0  0
   56.5718   31.7803   32.7644 C   0  0  0  0  0  0  0  0  0  0  0  0
   56.3306   33.2448   32.6920 C   0  0  0  0  0  0  0  0  0  0  0  0
   57.2608   34.1454   33.2171 C   0  0  0  0  0  0  0  0  0  0  0  0
   57.0408   35.5293   33.1518 C   0  0  0  0  0  0  0  0  0  0  0  0
   55.8862   36.0693   32.5644 C   0  0  0  0  0  0  0  0  0  0  0  0
   54.9645   35.1321   32.0589 C   0  0  0  0  0  0  0  0  0  0  0  0
   55.1637   33.7460   32.1165 C   0  0  0  0  0  0  0  0  0  0  0  0
  1  2  2  0
  2  4  1  0
  2  3  1  0
  5  4  1  1
  5  6  1  0
  5 14  1  0
  6  7  1  0
  7  8  2  0
  7 12  1  0
  8  9  1  0
  9 10  2  0
 10 11  1  0
 11 12  2  0
 12 13  1  0
 13 14  1  0
 14 15  2  0
  3 16  1  0
 16 23  1  1
 16 17  1  0
 23 24  1  0
 24 25  2  0
 24 29  1  0
 25 26  1  0
 26 27  2  0
 27 28  1  0
 28 29  2  0
 17 18  2  0
 17 22  1  0
 18 19  1  0
 19 20  2  0
 20 21  1  0
 21 22  2  0
M  END
>  <minimizedAffinity>  (2) 
-6.85160

>  <Compliance>  (2) 
96.29629629629629

$$$$
ligand
     RDKit          3D

 29 32  0  0  0  0  0  0  0  0999 V2000
   55.2243   30.8657   30.2177 O   0  0  0  0  0  0  0  0  0  0  0  0
   56.3312   31.0144   30.7311 C   0  0  0  0  0  0  0  0  0  0  0  0
   57.5477   30.8218   30.0949 N   0  0  0  0  0  0  0  0  0  0  0  0
   56.4854   31.4831   32.1620 C   0  0  0  0  0  0  0  0  0  0  0  0
   57.3406   32.7226   32.2398 C   0  0  1  0  0  0  0  0  0  0  0  0
   57.2579   33.3746   30.9773 O   0  0  0  0  0  0  0  0  0  0  0  0
   57.8096   34.6267   30.9825 C   0  0  0  0  0  0  0  0  0  0  0  0
   58.2555   35.1458   29.7682 C   0  0  0  0  0  0  0  0  0  0  0  0
   58.7942   36.4322   29.7229 C   0  0  0  0  0  0  0  0  0  0  0  0
   58.8716   37.2017   30.8854 C   0  0  0  0  0  0  0  0  0  0  0  0
   58.4064   36.6900   32.0973 C   0  0  0  0  0  0  0  0  0  0  0  0
   57.8770   35.3999   32.1411 C   0  0  0  0  0  0  0  0  0  0  0  0
   57.3558   34.8943   33.3373 N   0  0  0  0  0  0  0  0  0  0  0  0
   56.9480   33.5804   33.4450 C   0  0  0  0  0  0  0  0  0  0  0  0
   56.3960   33.1254   34.4443 O   0  0  0  0  0  0  0  0  0  0  0  0
   57.6569   30.4144   28.7222 C   0  0  1  0  0  0  0  0  0  0  0  0
   58.3396   31.4920   27.9601 C   0  0  0  0  0  0  0  0  0  0  0  0
   59.7291   31.6287   28.0117 C   0  0  0  0  0  0  0  0  0  0  0  0
   60.3811   32.6427   27.2944 C   0  0  0  0  0  0  0  0  0  0  0  0
   59.6754   33.5605   26.5010 C   0  0  0  0  0  0  0  0  0  0  0  0
   58.2762   33.4017   26.4841 C   0  0  0  0  0  0  0  0  0  0  0  0
   57.6052   32.3975   27.1953 C   0  0  0  0  0  0  0  0  0  0  0  0
   58.4520   29.0986   28.6807 C   0  0  0  0  0  0  0  0  0  0  0  0
   57.5831   27.8931   28.6931 C   0  0  0  0  0  0  0  0  0  0  0  0
   57.4356   27.1349   29.8573 C   0  0  0  0  0  0  0  0  0  0  0  0
   56.6165   25.9963   29.8772 C   0  0  0  0  0  0  0  0  0  0  0  0
   55.9156   25.5674   28.7394 C   0  0  0  0  0  0  0  0  0  0  0  0
   56.0993   26.3470   27.5810 C   0  0  0  0  0  0  0  0  0  0  0  0
   56.9148   27.4860   27.5390 C   0  0  0  0  0  0  0  0  0  0  0  0
  1  2  2  0
  2  4  1  0
  2  3  1  0
  5  4  1  6
  5  6  1  0
  5 14  1  0
  6  7  1  0
  7  8  2  0
  7 12  1  0
  8  9  1  0
  9 10  2  0
 10 11  1  0
 11 12  2  0
 12 13  1  0
 13 14  1  0
 14 15  2  0
  3 16  1  0
 16 23  1  1
 16 17  1  0
 23 24  1  0
 24 25  2  0
 24 29  1  0
 25 26  1  0
 26 27  2  0
 27 28  1  0
 28 29  2  0
 17 18  2  0
 17 22  1  0
 18 19  1  0
 19 20  2  0
 20 21  1  0
 21 22  2  0
M  END
>  <minimizedAffinity>  (3) 
-6.64275

>  <Compliance>  (3) 
96.29629629629629

$$$$
ligand
     RDKit          3D

 29 32  0  0  0  0  0  0  0  0999 V2000
   57.3120   33.0297   32.7216 O   0  0  0  0  0  0  0  0  0  0  0  0
   56.9937   32.8809   31.5436 C   0  0  0  0  0  0  0  0  0  0  0  0
   57.5177   33.5863   30.4715 N   0  0  0  0  0  0  0  0  0  0  0  0
   55.9816   31.8378   31.1211 C   0  0  0  0  0  0  0  0  0  0  0  0
   56.6603   30.5543   30.7137 C   0  0  1  0  0  0  0  0  0  0  0  0
   55.9967   29.4913   31.3883 O   0  0  0  0  0  0  0  0  0  0  0  0
   56.3693   28.2541   30.9381 C   0  0  0  0  0  0  0  0  0  0  0  0
   56.2176   27.1736   31.8055 C   0  0  0  0  0  0  0  0  0  0  0  0
   56.5542   25.8896   31.3753 C   0  0  0  0  0  0  0  0  0  0  0  0
   57.0257   25.6859   30.0769 C   0  0  0  0  0  0  0  0  0  0  0  0
   57.1583   26.7646   29.2018 C   0  0  0  0  0  0  0  0  0  0  0  0
   56.8299   28.0484   29.6380 C   0  0  0  0  0  0  0  0  0  0  0  0
   56.9047   29.1314   28.7549 N   0  0  0  0  0  0  0  0  0  0  0  0
   56.7152   30.4274   29.1894 C   0  0  0  0  0  0  0  0  0  0  0  0
   56.6756   31.3938   28.4313 O   0  0  0  0  0  0  0  0  0  0  0  0
   58.5224   34.6017   30.6189 C   0  0  1  0  0  0  0  0  0  0  0  0
   59.5835   34.3704   29.6047 C   0  0  0  0  0  0  0  0  0  0  0  0
   60.1616   33.1072   29.4558 C   0  0  0  0  0  0  0  0  0  0  0  0
   61.1630   32.8806   28.5000 C   0  0  0  0  0  0  0  0  0  0  0  0
   61.6291   33.9024   27.6584 C   0  0  0  0  0  0  0  0  0  0  0  0
   61.0345   35.1651   27.8462 C   0  0  0  0  0  0  0  0  0  0  0  0
   60.0349   35.4133   28.7967 C   0  0  0  0  0  0  0  0  0  0  0  0
   57.8448   35.9693   30.4296 C   0  0  0  0  0  0  0  0  0  0  0  0
   57.7010   36.7280   31.6992 C   0  0  0  0  0  0  0  0  0  0  0  0
   58.7399   37.5378   32.1652 C   0  0  0  0  0  0  0  0  0  0  0  0
   58.6115   38.2578   33.3622 C   0  0  0  0  0  0  0  0  0  0  0  0
   57.4462   38.1974   34.1421 C   0  0  0  0  0  0  0  0  0  0  0  0
   56.4261   37.3606   33.6495 C   0  0  0  0  0  0  0  0  0  0  0  0
   56.5352   36.6309   32.4579 C   0  0  0  0  0  0  0  0  0  0  0  0
  1  2  2  0
  2  4  1  0
  2  3  1  0
  5  4  1  6
  5  6  1  0
  5 14  1  0
  6  7  1  0
  7  8  2  0
  7 12  1  0
  8  9  1  0
  9 10  2  0
 10 11  1  0
 11 12  2  0
 12 13  1  0
 13 14  1  0
 14 15  2  0
  3 16  1  0
 16 23  1  6
 16 17  1  0
 23 24  1  0
 24 25  2  0
 24 29  1  0
 25 26  1  0
 26 27  2  0
 27 28  1  0
 28 29  2  0
 17 18  2  0
 17 22  1  0
 18 19  1  0
 19 20  2  0
 20 21  1  0
 21 22  2  0
M  END
>  <minimizedAffinity>  (4) 
-6.57396

>  <Compliance>  (4) 
96.29629629629629

$$$$
ligand
     RDKit          3D

 29 32  0  0  0  0  0  0  0  0999 V2000
   56.8148   32.7723   28.9458 O   0  0  0  0  0  0  0  0  0  0  0  0
   57.8052   32.2310   29.4328 C   0  0  0  0  0  0  0  0  0  0  0  0
   57.7885   31.2532   30.4153 N   0  0  0  0  0  0  0  0  0  0  0  0
   59.2039   32.5628   28.9592 C   0  0  0  0  0  0  0  0  0  0  0  0
   60.0088   31.3105   28.7188 C   0  0  1  0  0  0  0  0  0  0  0  0
   59.2365   30.4662   27.8726 O   0  0  0  0  0  0  0  0  0  0  0  0
   59.9405   29.3935   27.3973 C   0  0  0  0  0  0  0  0  0  0  0  0
   59.2219   28.2623   27.0140 C   0  0  0  0  0  0  0  0  0  0  0  0
   59.8977   27.1583   26.4928 C   0  0  0  0  0  0  0  0  0  0  0  0
   61.2853   27.1925   26.3412 C   0  0  0  0  0  0  0  0  0  0  0  0
   62.0025   28.3325   26.7057 C   0  0  0  0  0  0  0  0  0  0  0  0
   61.3251   29.4311   27.2353 C   0  0  0  0  0  0  0  0  0  0  0  0
   62.0237   30.6012   27.5534 N   0  0  0  0  0  0  0  0  0  0  0  0
   61.4071   31.6532   28.1995 C   0  0  0  0  0  0  0  0  0  0  0  0
   61.9574   32.7321   28.4081 O   0  0  0  0  0  0  0  0  0  0  0  0
   56.5761   30.7456   30.9937 C   0  0  1  0  0  0  0  0  0  0  0  0
   56.6190   29.2607   30.9592 C   0  0  0  0  0  0  0  0  0  0  0  0
   56.7891   28.5822   29.7497 C   0  0  0  0  0  0  0  0  0  0  0  0
   56.8317   27.1807   29.7089 C   0  0  0  0  0  0  0  0  0  0  0  0
   56.7037   26.4012   30.8691 C   0  0  0  0  0  0  0  0  0  0  0  0
   56.5192   27.1179   32.0672 C   0  0  0  0  0  0  0  0  0  0  0  0
   56.4711   28.5172   32.1295 C   0  0  0  0  0  0  0  0  0  0  0  0
   56.4796   31.2773   32.4336 C   0  0  0  0  0  0  0  0  0  0  0  0
   56.3630   32.7572   32.5007 C   0  0  0  0  0  0  0  0  0  0  0  0
   55.2045   33.4001   32.0570 C   0  0  0  0  0  0  0  0  0  0  0  0
   55.0864   34.7965   32.1180 C   0  0  0  0  0  0  0  0  0  0  0  0
   56.1171   35.6063   32.6198 C   0  0  0  0  0  0  0  0  0  0  0  0
   57.2747   34.9258   33.0442 C   0  0  0  0  0  0  0  0  0  0  0  0
   57.4141   33.5322   32.9894 C   0  0  0  0  0  0  0  0  0  0  0  0
  1  2  2  0
  2  4  1  0
  2  3  1  0
  5  4  1  6
  5  6  1  0
  5 14  1  0
  6  7  1  0
  7  8  2  0
  7 12  1  0
  8  9  1  0
  9 10  2  0
 10 11  1  0
 11 12  2  0
 12 13  1  0
 13 14  1  0
 14 15  2  0
  3 16  1  0
 16 23  1  1
 16 17  1  0
 23 24  1  0
 24 25  2  0
 24 29  1  0
 25 26  1  0
 26 27  2  0
 27 28  1  0
 28 29  2  0
 17 18  2  0
 17 22  1  0
 18 19  1  0
 19 20  2  0
 20 21  1  0
 21 22  2  0
M  END
>  <minimizedAffinity>  (5) 
-6.52693

>  <Compliance>  (5) 
96.29629629629629

$$$$
ligand
     RDKit          3D

 29 32  0  0  0  0  0  0  0  0999 V2000
   57.3004   32.0574   27.5823 O   0  0  0  0  0  0  0  0  0  0  0  0
   57.3885   32.1578   28.8043 C   0  0  0  0  0  0  0  0  0  0  0  0
   58.5642   32.3404   29.5156 N   0  0  0  0  0  0  0  0  0  0  0  0
   56.1634   32.1317   29.6927 C   0  0  0  0  0  0  0  0  0  0  0  0
   55.9443   30.7592   30.2778 C   0  0  1  0  0  0  0  0  0  0  0  0
   56.5376   29.8197   29.3885 O   0  0  0  0  0  0  0  0  0  0  0  0
   56.6041   28.5559   29.9088 C   0  0  0  0  0  0  0  0  0  0  0  0
   56.6656   27.4875   29.0157 C   0  0  0  0  0  0  0  0  0  0  0  0
   56.7679   26.1842   29.5036 C   0  0  0  0  0  0  0  0  0  0  0  0
   56.8243   25.9525   30.8793 C   0  0  0  0  0  0  0  0  0  0  0  0
   56.7834   27.0234   31.7729 C   0  0  0  0  0  0  0  0  0  0  0  0
   56.6716   28.3246   31.2823 C   0  0  0  0  0  0  0  0  0  0  0  0
   56.6854   29.4117   32.1635 N   0  0  0  0  0  0  0  0  0  0  0  0
   56.4445   30.6970   31.7229 C   0  0  0  0  0  0  0  0  0  0  0  0
   56.5441   31.6869   32.4443 O   0  0  0  0  0  0  0  0  0  0  0  0
   59.8520   32.4360   28.8875 C   0  0  1  0  0  0  0  0  0  0  0  0
   60.1779   33.8722   28.6891 C   0  0  0  0  0  0  0  0  0  0  0  0
   61.2149   34.2545   27.8344 C   0  0  0  0  0  0  0  0  0  0  0  0
   61.5280   35.6081   27.6411 C   0  0  0  0  0  0  0  0  0  0  0  0
   60.8235   36.6322   28.2927 C   0  0  0  0  0  0  0  0  0  0  0  0
   59.7952   36.2097   29.1571 C   0  0  0  0  0  0  0  0  0  0  0  0
   59.4680   34.8630   29.3664 C   0  0  0  0  0  0  0  0  0  0  0  0
   60.8769   31.7423   29.8006 C   0  0  0  0  0  0  0  0  0  0  0  0
   61.8786   30.9427   29.0486 C   0  0  0  0  0  0  0  0  0  0  0  0
   63.2305   30.9857   29.3986 C   0  0  0  0  0  0  0  0  0  0  0  0
   64.1819   30.2331   28.6944 C   0  0  0  0  0  0  0  0  0  0  0  0
   63.8250   29.4117   27.6138 C   0  0  0  0  0  0  0  0  0  0  0  0
   62.4568   29.4042   27.2801 C   0  0  0  0  0  0  0  0  0  0  0  0
   61.4908   30.1504   27.9688 C   0  0  0  0  0  0  0  0  0  0  0  0
  1  2  2  0
  2  4  1  0
  2  3  1  0
  5  4  1  6
  5  6  1  0
  5 14  1  0
  6  7  1  0
  7  8  2  0
  7 12  1  0
  8  9  1  0
  9 10  2  0
 10 11  1  0
 11 12  2  0
 12 13  1  0
 13 14  1  0
 14 15  2  0
  3 16  1  0
 16 23  1  1
 16 17  1  0
 23 24  1  0
 24 25  2  0
 24 29  1  0
 25 26  1  0
 26 27  2  0
 27 28  1  0
 28 29  2  0
 17 18  2  0
 17 22  1  0
 18 19  1  0
 19 20  2  0
 20 21  1  0
 21 22  2  0
M  END
>  <minimizedAffinity>  (6) 
-6.50086

>  <Compliance>  (6) 
96.29629629629629

$$$$
ligand
     RDKit          3D

 29 32  0  0  0  0  0  0  0  0999 V2000
   57.6279   32.8266   28.9432 O   0  0  0  0  0  0  0  0  0  0  0  0
   58.4527   32.2352   29.6368 C   0  0  0  0  0  0  0  0  0  0  0  0
   58.1593   31.3013   30.6184 N   0  0  0  0  0  0  0  0  0  0  0  0
   59.9402   32.4460   29.4536 C   0  0  0  0  0  0  0  0  0  0  0  0
   60.6226   31.1703   29.0283 C   0  0  1  0  0  0  0  0  0  0  0  0
   59.7314   30.4831   28.1569 O   0  0  0  0  0  0  0  0  0  0  0  0
   60.3134   29.4185   27.5243 C   0  0  0  0  0  0  0  0  0  0  0  0
   59.4814   28.3928   27.0788 C   0  0  0  0  0  0  0  0  0  0  0  0
   60.0298   27.3043   26.3994 C   0  0  0  0  0  0  0  0  0  0  0  0
   61.4031   27.2505   26.1531 C   0  0  0  0  0  0  0  0  0  0  0  0
   62.2333   28.2871   26.5810 C   0  0  0  0  0  0  0  0  0  0  0  0
   61.6834   29.3695   27.2683 C   0  0  0  0  0  0  0  0  0  0  0  0
   62.4945   30.4425   27.6546 N   0  0  0  0  0  0  0  0  0  0  0  0
   62.0086   31.4614   28.4482 C   0  0  0  0  0  0  0  0  0  0  0  0
   62.6578   32.4669   28.7271 O   0  0  0  0  0  0  0  0  0  0  0  0
   56.8183   30.9063   30.9468 C   0  0  1  0  0  0  0  0  0  0  0  0
   56.7209   29.4269   30.8454 C   0  0  0  0  0  0  0  0  0  0  0  0
   56.5098   28.6484   31.9861 C   0  0  0  0  0  0  0  0  0  0  0  0
   56.4158   27.2515   31.8985 C   0  0  0  0  0  0  0  0  0  0  0  0
   56.5310   26.5763   30.6735 C   0  0  0  0  0  0  0  0  0  0  0  0
   56.7577   27.3913   29.5476 C   0  0  0  0  0  0  0  0  0  0  0  0
   56.8575   28.7877   29.6137 C   0  0  0  0  0  0  0  0  0  0  0  0
   56.5152   31.3986   32.3719 C   0  0  0  0  0  0  0  0  0  0  0  0
   56.3801   32.8758   32.4607 C   0  0  0  0  0  0  0  0  0  0  0  0
   57.2750   33.6270   33.2268 C   0  0  0  0  0  0  0  0  0  0  0  0
   57.1546   35.0218   33.3148 C   0  0  0  0  0  0  0  0  0  0  0  0
   56.1381   35.7216   32.6465 C   0  0  0  0  0  0  0  0  0  0  0  0
   55.2463   34.9312   31.8959 C   0  0  0  0  0  0  0  0  0  0  0  0
   55.3471   33.5368   31.7971 C   0  0  0  0  0  0  0  0  0  0  0  0
  1  2  2  0
  2  4  1  0
  2  3  1  0
  5  4  1  6
  5  6  1  0
  5 14  1  0
  6  7  1  0
  7  8  2  0
  7 12  1  0
  8  9  1  0
  9 10  2  0
 10 11  1  0
 11 12  2  0
 12 13  1  0
 13 14  1  0
 14 15  2  0
  3 16  1  0
 16 23  1  1
 16 17  1  0
 23 24  1  0
 24 25  2  0
 24 29  1  0
 25 26  1  0
 26 27  2  0
 27 28  1  0
 28 29  2  0
 17 18  2  0
 17 22  1  0
 18 19  1  0
 19 20  2  0
 20 21  1  0
 21 22  2  0
M  END
>  <minimizedAffinity>  (7) 
-6.48558

>  <Compliance>  (7) 
100.0

$$$$
ligand
     RDKit          3D

 29 32  0  0  0  0  0  0  0  0999 V2000
   56.7068   31.8573   28.3146 O   0  0  0  0  0  0  0  0  0  0  0  0
   57.7374   31.5849   28.9267 C   0  0  0  0  0  0  0  0  0  0  0  0
   57.8000   30.9596   30.1622 N   0  0  0  0  0  0  0  0  0  0  0  0
   59.1047   31.8814   28.3494 C   0  0  0  0  0  0  0  0  0  0  0  0
   59.3018   33.3631   28.1495 C   0  0  1  0  0  0  0  0  0  0  0  0
   59.0307   33.9984   29.3940 O   0  0  0  0  0  0  0  0  0  0  0  0
   59.3857   35.3197   29.4108 C   0  0  0  0  0  0  0  0  0  0  0  0
   58.7352   36.1563   30.3162 C   0  0  0  0  0  0  0  0  0  0  0  0
   59.0899   37.5038   30.3897 C   0  0  0  0  0  0  0  0  0  0  0  0
   60.1025   38.0083   29.5714 C   0  0  0  0  0  0  0  0  0  0  0  0
   60.7679   37.1664   28.6795 C   0  0  0  0  0  0  0  0  0  0  0  0
   60.4045   35.8217   28.6017 C   0  0  0  0  0  0  0  0  0  0  0  0
   61.1000   34.9536   27.7525 N   0  0  0  0  0  0  0  0  0  0  0  0
   60.6816   33.6536   27.5545 C   0  0  0  0  0  0  0  0  0  0  0  0
   61.3175   32.8334   26.8963 O   0  0  0  0  0  0  0  0  0  0  0  0
   56.6332   30.5460   30.8900 C   0  0  1  0  0  0  0  0  0  0  0  0
   56.5712   29.0613   30.8836 C   0  0  0  0  0  0  0  0  0  0  0  0
   56.6875   28.3500   29.6867 C   0  0  0  0  0  0  0  0  0  0  0  0
   56.6310   26.9484   29.6724 C   0  0  0  0  0  0  0  0  0  0  0  0
   56.4539   26.2018   30.8476 C   0  0  0  0  0  0  0  0  0  0  0  0
   56.3259   26.9520   32.0325 C   0  0  0  0  0  0  0  0  0  0  0  0
   56.3768   28.3522   32.0683 C   0  0  0  0  0  0  0  0  0  0  0  0
   56.7443   31.1032   32.3191 C   0  0  0  0  0  0  0  0  0  0  0  0
   56.5000   32.5671   32.3934 C   0  0  0  0  0  0  0  0  0  0  0  0
   55.4222   33.1435   31.7164 C   0  0  0  0  0  0  0  0  0  0  0  0
   55.1844   34.5243   31.7824 C   0  0  0  0  0  0  0  0  0  0  0  0
   56.0113   35.3843   32.5216 C   0  0  0  0  0  0  0  0  0  0  0  0
   57.0956   34.7711   33.1788 C   0  0  0  0  0  0  0  0  0  0  0  0
   57.3524   33.3944   33.1236 C   0  0  0  0  0  0  0  0  0  0  0  0
  1  2  2  0
  2  4  1  0
  2  3  1  0
  5  4  1  1
  5  6  1  0
  5 14  1  0
  6  7  1  0
  7  8  2  0
  7 12  1  0
  8  9  1  0
  9 10  2  0
 10 11  1  0
 11 12  2  0
 12 13  1  0
 13 14  1  0
 14 15  2  0
  3 16  1  0
 16 23  1  1
 16 17  1  0
 23 24  1  0
 24 25  2  0
 24 29  1  0
 25 26  1  0
 26 27  2  0
 27 28  1  0
 28 29  2  0
 17 18  2  0
 17 22  1  0
 18 19  1  0
 19 20  2  0
 20 21  1  0
 21 22  2  0
M  END
>  <minimizedAffinity>  (8) 
-6.47660

>  <Compliance>  (8) 
96.29629629629629

$$$$
ligand
     RDKit          3D

 29 32  0  0  0  0  0  0  0  0999 V2000
   54.1878   34.2362   32.6084 O   0  0  0  0  0  0  0  0  0  0  0  0
   55.2777   33.9665   32.1077 C   0  0  0  0  0  0  0  0  0  0  0  0
   56.1341   34.8737   31.5035 N   0  0  0  0  0  0  0  0  0  0  0  0
   55.8381   32.5609   32.1374 C   0  0  0  0  0  0  0  0  0  0  0  0
   56.6065   32.2543   30.8766 C   0  0  1  0  0  0  0  0  0  0  0  0
   57.9834   32.4863   31.1523 O   0  0  0  0  0  0  0  0  0  0  0  0
   58.8127   32.0354   30.1618 C   0  0  0  0  0  0  0  0  0  0  0  0
   60.0685   32.6289   30.0449 C   0  0  0  0  0  0  0  0  0  0  0  0
   60.9582   32.1767   29.0698 C   0  0  0  0  0  0  0  0  0  0  0  0
   60.5984   31.1244   28.2256 C   0  0  0  0  0  0  0  0  0  0  0  0
   59.3492   30.5166   28.3560 C   0  0  0  0  0  0  0  0  0  0  0  0
   58.4582   30.9772   29.3257 C   0  0  0  0  0  0  0  0  0  0  0  0
   57.2244   30.3417   29.5052 N   0  0  0  0  0  0  0  0  0  0  0  0
   56.2705   30.8529   30.3612 C   0  0  0  0  0  0  0  0  0  0  0  0
   55.2176   30.2746   30.6203 O   0  0  0  0  0  0  0  0  0  0  0  0
   55.8373   36.2741   31.3901 C   0  0  1  0  0  0  0  0  0  0  0  0
   56.0186   36.9072   32.7222 C   0  0  0  0  0  0  0  0  0  0  0  0
   55.0461   37.7669   33.2392 C   0  0  0  0  0  0  0  0  0  0  0  0
   55.2095   38.3675   34.4963 C   0  0  0  0  0  0  0  0  0  0  0  0
   56.3474   38.1381   35.2851 C   0  0  0  0  0  0  0  0  0  0  0  0
   57.3127   37.2783   34.7264 C   0  0  0  0  0  0  0  0  0  0  0  0
   57.1703   36.6703   33.4717 C   0  0  0  0  0  0  0  0  0  0  0  0
   56.7876   36.8762   30.3415 C   0  0  0  0  0  0  0  0  0  0  0  0
   57.0626   35.9549   29.2084 C   0  0  0  0  0  0  0  0  0  0  0  0
   56.0130   35.3394   28.5216 C   0  0  0  0  0  0  0  0  0  0  0  0
   56.2644   34.4692   27.4505 C   0  0  0  0  0  0  0  0  0  0  0  0
   57.5690   34.1763   27.0240 C   0  0  0  0  0  0  0  0  0  0  0  0
   58.6018   34.8028   27.7481 C   0  0  0  0  0  0  0  0  0  0  0  0
   58.3725   35.6729   28.8226 C   0  0  0  0  0  0  0  0  0  0  0  0
  1  2  2  0
  2  4  1  0
  2  3  1  0
  5  4  1  1
  5  6  1  0
  5 14  1  0
  6  7  1  0
  7  8  2  0
  7 12  1  0
  8  9  1  0
  9 10  2  0
 10 11  1  0
 11 12  2  0
 12 13  1  0
 13 14  1  0
 14 15  2  0
  3 16  1  0
 16 23  1  6
 16 17  1  0
 23 24  1  0
 24 25  2  0
 24 29  1  0
 25 26  1  0
 26 27  2  0
 27 28  1  0
 28 29  2  0
 17 18  2  0
 17 22  1  0
 18 19  1  0
 19 20  2  0
 20 21  1  0
 21 22  2  0
M  END
>  <minimizedAffinity>  (9) 
-6.42484

>  <Compliance>  (9) 
96.29629629629629

$$$$
