ligand
     RDKit          3D

 29 32  0  0  0  0  0  0  0  0999 V2000
   55.9992   32.0146   28.4244 O   0  0  0  0  0  0  0  0  0  0  0  0
   57.1252   31.7612   28.8476 C   0  0  0  0  0  0  0  0  0  0  0  0
   57.4113   31.0456   29.9999 N   0  0  0  0  0  0  0  0  0  0  0  0
   58.3690   32.1889   28.0987 C   0  0  0  0  0  0  0  0  0  0  0  0
   59.5915   31.4788   28.6233 C   0  0  1  0  0  0  0  0  0  0  0  0
   60.3321   31.0218   27.4970 O   0  0  0  0  0  0  0  0  0  0  0  0
   61.5753   30.5543   27.8258 C   0  0  0  0  0  0  0  0  0  0  0  0
   62.1748   29.6387   26.9626 C   0  0  0  0  0  0  0  0  0  0  0  0
   63.4558   29.1617   27.2426 C   0  0  0  0  0  0  0  0  0  0  0  0
   64.1403   29.6114   28.3735 C   0  0  0  0  0  0  0  0  0  0  0  0
   63.5484   30.5436   29.2266 C   0  0  0  0  0  0  0  0  0  0  0  0
   62.2638   31.0114   28.9491 C   0  0  0  0  0  0  0  0  0  0  0  0
   61.6797   31.9874   29.7643 N   0  0  0  0  0  0  0  0  0  0  0  0
   60.3655   32.3727   29.5951 C   0  0  0  0  0  0  0  0  0  0  0  0
   59.8461   33.2924   30.2234 O   0  0  0  0  0  0  0  0  0  0  0  0
   56.3947   30.5023   30.8564 C   0  0  1  0  0  0  0  0  0  0  0  0
   56.4973   29.0201   30.8338 C   0  0  0  0  0  0  0  0  0  0  0  0
   56.3689   28.2804   32.0121 C   0  0  0  0  0  0  0  0  0  0  0  0
   56.4634   26.8809   31.9989 C   0  0  0  0  0  0  0  0  0  0  0  0
   56.6921   26.1647   30.8138 C   0  0  0  0  0  0  0  0  0  0  0  0
   56.8308   26.9432   29.6485 C   0  0  0  0  0  0  0  0  0  0  0  0
   56.7424   28.3420   29.6403 C   0  0  0  0  0  0  0  0  0  0  0  0
   56.6164   31.0651   32.2704 C   0  0  0  0  0  0  0  0  0  0  0  0
   56.4355   32.5382   32.3452 C   0  0  0  0  0  0  0  0  0  0  0  0
   57.4772   33.3613   32.7808 C   0  0  0  0  0  0  0  0  0  0  0  0
   57.3146   34.7526   32.8532 C   0  0  0  0  0  0  0  0  0  0  0  0
   56.1091   35.3775   32.4980 C   0  0  0  0  0  0  0  0  0  0  0  0
   55.0772   34.5162   32.0777 C   0  0  0  0  0  0  0  0  0  0  0  0
   55.2179   33.1239   32.0007 C   0  0  0  0  0  0  0  0  0  0  0  0
  1  2  2  0
  2  4  1  0
  2  3  1  0
  5  4  1  6
  5  6  1  0
  5 14  1  0
  6  7  1  0
  7  8  2  0
  7 12  1  0
  8  9  1  0
  9 10  2  0
 10 11  1  0
 11 12  2  0
 12 13  1  0
 13 14  1  0
 14 15  2  0
  3 16  1  0
 16 23  1  1
 16 17  1  0
 23 24  1  0
 24 25  2  0
 24 29  1  0
 25 26  1  0
 26 27  2  0
 27 28  1  0
 28 29  2  0
 17 18  2  0
 17 22  1  0
 18 19  1  0
 19 20  2  0
 20 21  1  0
 21 22  2  0
M  END
>  <minimizedAffinity>  (1) 
-7.09357

>  <Compliance>  (1) 
100.0

$$$$
ligand
     RDKit          3D

 29 32  0  0  0  0  0  0  0  0999 V2000
   55.7893   31.9840   28.5403 O   0  0  0  0  0  0  0  0  0  0  0  0
   56.9376   31.8701   28.9640 C   0  0  0  0  0  0  0  0  0  0  0  0
   57.2991   31.2776   30.1640 N   0  0  0  0  0  0  0  0  0  0  0  0
   58.1295   32.3504   28.1644 C   0  0  0  0  0  0  0  0  0  0  0  0
   58.4410   33.7947   28.4657 C   0  0  1  0  0  0  0  0  0  0  0  0
   57.1998   34.4831   28.5707 O   0  0  0  0  0  0  0  0  0  0  0  0
   57.3306   35.7545   29.0592 C   0  0  0  0  0  0  0  0  0  0  0  0
   56.3385   36.6796   28.7383 C   0  0  0  0  0  0  0  0  0  0  0  0
   56.4156   37.9782   29.2429 C   0  0  0  0  0  0  0  0  0  0  0  0
   57.4728   38.3448   30.0780 C   0  0  0  0  0  0  0  0  0  0  0  0
   58.4550   37.4131   30.4159 C   0  0  0  0  0  0  0  0  0  0  0  0
   58.3803   36.1182   29.9022 C   0  0  0  0  0  0  0  0  0  0  0  0
   59.3268   35.1578   30.2764 N   0  0  0  0  0  0  0  0  0  0  0  0
   59.3578   33.9110   29.6857 C   0  0  0  0  0  0  0  0  0  0  0  0
   60.1072   33.0091   30.0534 O   0  0  0  0  0  0  0  0  0  0  0  0
   56.3451   30.7122   31.0763 C   0  0  1  0  0  0  0  0  0  0  0  0
   56.5057   29.2349   31.0759 C   0  0  0  0  0  0  0  0  0  0  0  0
   56.7100   28.5422   29.8798 C   0  0  0  0  0  0  0  0  0  0  0  0
   56.8635   27.1479   29.8713 C   0  0  0  0  0  0  0  0  0  0  0  0
   56.8167   26.3899   31.0515 C   0  0  0  0  0  0  0  0  0  0  0  0
   56.5949   27.1192   32.2356 C   0  0  0  0  0  0  0  0  0  0  0  0
   56.4364   28.5114   32.2659 C   0  0  0  0  0  0  0  0  0  0  0  0
   56.6082   31.3113   32.4681 C   0  0  0  0  0  0  0  0  0  0  0  0
   56.4146   32.7840   32.5136 C   0  0  0  0  0  0  0  0  0  0  0  0
   55.2671   33.3674   31.9705 C   0  0  0  0  0  0  0  0  0  0  0  0
   55.0766   34.7566   32.0104 C   0  0  0  0  0  0  0  0  0  0  0  0
   56.0214   35.6179   32.5894 C   0  0  0  0  0  0  0  0  0  0  0  0
   57.1715   34.9967   33.1136 C   0  0  0  0  0  0  0  0  0  0  0  0
   57.3825   33.6115   33.0815 C   0  0  0  0  0  0  0  0  0  0  0  0
  1  2  2  0
  2  4  1  0
  2  3  1  0
  5  4  1  1
  5  6  1  0
  5 14  1  0
  6  7  1  0
  7  8  2  0
  7 12  1  0
  8  9  1  0
  9 10  2  0
 10 11  1  0
 11 12  2  0
 12 13  1  0
 13 14  1  0
 14 15  2  0
  3 16  1  0
 16 23  1  1
 16 17  1  0
 23 24  1  0
 24 25  2  0
 24 29  1  0
 25 26  1  0
 26 27  2  0
 27 28  1  0
 28 29  2  0
 17 18  2  0
 17 22  1  0
 18 19  1  0
 19 20  2  0
 20 21  1  0
 21 22  2  0
M  END
>  <minimizedAffinity>  (2) 
-6.72836

>  <Compliance>  (2) 
96.29629629629629

$$$$
ligand
     RDKit          3D

 29 32  0  0  0  0  0  0  0  0999 V2000
   55.2242   30.8682   30.2202 O   0  0  0  0  0  0  0  0  0  0  0  0
   56.3272   31.0197   30.7414 C   0  0  0  0  0  0  0  0  0  0  0  0
   57.5485   30.8300   30.1136 N   0  0  0  0  0  0  0  0  0  0  0  0
   56.4703   31.4888   32.1732 C   0  0  0  0  0  0  0  0  0  0  0  0
   57.3014   32.7445   32.2543 C   0  0  1  0  0  0  0  0  0  0  0  0
   57.2071   33.3975   30.9932 O   0  0  0  0  0  0  0  0  0  0  0  0
   57.7344   34.6600   31.0015 C   0  0  0  0  0  0  0  0  0  0  0  0
   58.1712   35.1902   29.7887 C   0  0  0  0  0  0  0  0  0  0  0  0
   58.6850   36.4868   29.7465 C   0  0  0  0  0  0  0  0  0  0  0  0
   58.7467   37.2552   30.9107 C   0  0  0  0  0  0  0  0  0  0  0  0
   58.2906   36.7319   32.1211 C   0  0  0  0  0  0  0  0  0  0  0  0
   57.7861   35.4319   32.1618 C   0  0  0  0  0  0  0  0  0  0  0  0
   57.2739   34.9137   33.3565 N   0  0  0  0  0  0  0  0  0  0  0  0
   56.8915   33.5919   33.4611 C   0  0  0  0  0  0  0  0  0  0  0  0
   56.3476   33.1242   34.4589 O   0  0  0  0  0  0  0  0  0  0  0  0
   57.6683   30.4228   28.7418 C   0  0  1  0  0  0  0  0  0  0  0  0
   58.3479   31.5047   27.9830 C   0  0  0  0  0  0  0  0  0  0  0  0
   59.7370   31.6451   28.0348 C   0  0  0  0  0  0  0  0  0  0  0  0
   60.3860   32.6632   27.3206 C   0  0  0  0  0  0  0  0  0  0  0  0
   59.6776   33.5816   26.5304 C   0  0  0  0  0  0  0  0  0  0  0  0
   58.2789   33.4190   26.5133 C   0  0  0  0  0  0  0  0  0  0  0  0
   57.6108   32.4107   27.2213 C   0  0  0  0  0  0  0  0  0  0  0  0
   58.4727   29.1125   28.7054 C   0  0  0  0  0  0  0  0  0  0  0  0
   57.6122   27.9011   28.7147 C   0  0  0  0  0  0  0  0  0  0  0  0
   57.4733   27.1364   29.8758 C   0  0  0  0  0  0  0  0  0  0  0  0
   56.6620   25.9922   29.8929 C   0  0  0  0  0  0  0  0  0  0  0  0
   55.9608   25.5638   28.7552 C   0  0  0  0  0  0  0  0  0  0  0  0
   56.1356   26.3499   27.5999 C   0  0  0  0  0  0  0  0  0  0  0  0
   56.9433   27.4947   27.5607 C   0  0  0  0  0  0  0  0  0  0  0  0
  1  2  2  0
  2  4  1  0
  2  3  1  0
  5  4  1  6
  5  6  1  0
  5 14  1  0
  6  7  1  0
  7  8  2  0
  7 12  1  0
  8  9  1  0
  9 10  2  0
 10 11  1  0
 11 12  2  0
 12 13  1  0
 13 14  1  0
 14 15  2  0
  3 16  1  0
 16 23  1  1
 16 17  1  0
 23 24  1  0
 24 25  2  0
 24 29  1  0
 25 26  1  0
 26 27  2  0
 27 28  1  0
 28 29  2  0
 17 18  2  0
 17 22  1  0
 18 19  1  0
 19 20  2  0
 20 21  1  0
 21 22  2  0
M  END
>  <minimizedAffinity>  (3) 
-6.63812

>  <Compliance>  (3) 
96.29629629629629

$$$$
ligand
     RDKit          3D

 29 32  0  0  0  0  0  0  0  0999 V2000
   57.2729   33.0647   29.3222 O   0  0  0  0  0  0  0  0  0  0  0  0
   58.1683   32.4811   29.9295 C   0  0  0  0  0  0  0  0  0  0  0  0
   57.9830   31.5240   30.9150 N   0  0  0  0  0  0  0  0  0  0  0  0
   59.6290   32.7299   29.6207 C   0  0  0  0  0  0  0  0  0  0  0  0
   60.3068   31.4702   29.1434 C   0  0  1  0  0  0  0  0  0  0  0  0
   59.3318   30.7019   28.4474 O   0  0  0  0  0  0  0  0  0  0  0  0
   59.8674   29.6386   27.7731 C   0  0  0  0  0  0  0  0  0  0  0  0
   59.0342   28.5547   27.5010 C   0  0  0  0  0  0  0  0  0  0  0  0
   59.5308   27.4638   26.7867 C   0  0  0  0  0  0  0  0  0  0  0  0
   60.8512   27.4647   26.3328 C   0  0  0  0  0  0  0  0  0  0  0  0
   61.6793   28.5585   26.5873 C   0  0  0  0  0  0  0  0  0  0  0  0
   61.1827   29.6437   27.3099 C   0  0  0  0  0  0  0  0  0  0  0  0
   61.9837   30.7708   27.5249 N   0  0  0  0  0  0  0  0  0  0  0  0
   61.5701   31.8006   28.3450 C   0  0  0  0  0  0  0  0  0  0  0  0
   62.1985   32.8479   28.4816 O   0  0  0  0  0  0  0  0  0  0  0  0
   56.6851   31.0920   31.3521 C   0  0  1  0  0  0  0  0  0  0  0  0
   56.6709   29.6069   31.4014 C   0  0  0  0  0  0  0  0  0  0  0  0
   56.5538   28.8576   30.2280 C   0  0  0  0  0  0  0  0  0  0  0  0
   56.5405   27.4554   30.2661 C   0  0  0  0  0  0  0  0  0  0  0  0
   56.6404   26.7458   31.4729 C   0  0  0  0  0  0  0  0  0  0  0  0
   56.7423   27.5332   32.6360 C   0  0  0  0  0  0  0  0  0  0  0  0
   56.7547   28.9346   32.6202 C   0  0  0  0  0  0  0  0  0  0  0  0
   56.4222   31.7084   32.7364 C   0  0  0  0  0  0  0  0  0  0  0  0
   56.2866   33.1877   32.6983 C   0  0  0  0  0  0  0  0  0  0  0  0
   57.2609   34.0062   33.2752 C   0  0  0  0  0  0  0  0  0  0  0  0
   57.1405   35.4034   33.2425 C   0  0  0  0  0  0  0  0  0  0  0  0
   56.0452   36.0389   32.6373 C   0  0  0  0  0  0  0  0  0  0  0  0
   55.0761   35.1829   32.0792 C   0  0  0  0  0  0  0  0  0  0  0  0
   55.1759   33.7851   32.1035 C   0  0  0  0  0  0  0  0  0  0  0  0
  1  2  2  0
  2  4  1  0
  2  3  1  0
  5  4  1  6
  5  6  1  0
  5 14  1  0
  6  7  1  0
  7  8  2  0
  7 12  1  0
  8  9  1  0
  9 10  2  0
 10 11  1  0
 11 12  2  0
 12 13  1  0
 13 14  1  0
 14 15  2  0
  3 16  1  0
 16 23  1  1
 16 17  1  0
 23 24  1  0
 24 25  2  0
 24 29  1  0
 25 26  1  0
 26 27  2  0
 27 28  1  0
 28 29  2  0
 17 18  2  0
 17 22  1  0
 18 19  1  0
 19 20  2  0
 20 21  1  0
 21 22  2  0
M  END
>  <minimizedAffinity>  (4) 
-6.62016

>  <Compliance>  (4) 
96.29629629629629

$$$$
ligand
     RDKit          3D

 29 32  0  0  0  0  0  0  0  0999 V2000
   57.0332   33.1152   32.9527 O   0  0  0  0  0  0  0  0  0  0  0  0
   56.7225   32.9553   31.7741 C   0  0  0  0  0  0  0  0  0  0  0  0
   57.2086   33.6918   30.7051 N   0  0  0  0  0  0  0  0  0  0  0  0
   55.7658   31.8629   31.3472 C   0  0  0  0  0  0  0  0  0  0  0  0
   56.5114   30.6451   30.8624 C   0  0  1  0  0  0  0  0  0  0  0  0
   55.9282   29.5114   31.4949 O   0  0  0  0  0  0  0  0  0  0  0  0
   56.3647   28.3231   30.9756 C   0  0  0  0  0  0  0  0  0  0  0  0
   56.2975   27.1938   31.7899 C   0  0  0  0  0  0  0  0  0  0  0  0
   56.7013   25.9557   31.2888 C   0  0  0  0  0  0  0  0  0  0  0  0
   57.1554   25.8456   29.9730 C   0  0  0  0  0  0  0  0  0  0  0  0
   57.2033   26.9723   29.1513 C   0  0  0  0  0  0  0  0  0  0  0  0
   56.8079   28.2105   29.6581 C   0  0  0  0  0  0  0  0  0  0  0  0
   56.7977   29.3384   28.8298 N   0  0  0  0  0  0  0  0  0  0  0  0
   56.5401   30.5972   29.3329 C   0  0  0  0  0  0  0  0  0  0  0  0
   56.4255   31.5956   28.6256 O   0  0  0  0  0  0  0  0  0  0  0  0
   58.1591   34.7574   30.8567 C   0  0  1  0  0  0  0  0  0  0  0  0
   59.2274   34.5893   29.8375 C   0  0  0  0  0  0  0  0  0  0  0  0
   59.7361   35.6951   29.1516 C   0  0  0  0  0  0  0  0  0  0  0  0
   60.7452   35.5448   28.1888 C   0  0  0  0  0  0  0  0  0  0  0  0
   61.2842   34.2887   27.8701 C   0  0  0  0  0  0  0  0  0  0  0  0
   60.7378   33.1958   28.5702 C   0  0  0  0  0  0  0  0  0  0  0  0
   59.7279   33.3238   29.5335 C   0  0  0  0  0  0  0  0  0  0  0  0
   57.4101   36.0889   30.6795 C   0  0  0  0  0  0  0  0  0  0  0  0
   57.3045   36.8692   31.9397 C   0  0  0  0  0  0  0  0  0  0  0  0
   56.1049   36.9055   32.6552 C   0  0  0  0  0  0  0  0  0  0  0  0
   55.9976   37.6389   33.8461 C   0  0  0  0  0  0  0  0  0  0  0  0
   57.0783   38.3662   34.3686 C   0  0  0  0  0  0  0  0  0  0  0  0
   58.2664   38.3187   33.6139 C   0  0  0  0  0  0  0  0  0  0  0  0
   58.3939   37.5945   32.4208 C   0  0  0  0  0  0  0  0  0  0  0  0
  1  2  2  0
  2  4  1  0
  2  3  1  0
  5  4  1  6
  5  6  1  0
  5 14  1  0
  6  7  1  0
  7  8  2  0
  7 12  1  0
  8  9  1  0
  9 10  2  0
 10 11  1  0
 11 12  2  0
 12 13  1  0
 13 14  1  0
 14 15  2  0
  3 16  1  0
 16 23  1  6
 16 17  1  0
 23 24  1  0
 24 25  2  0
 24 29  1  0
 25 26  1  0
 26 27  2  0
 27 28  1  0
 28 29  2  0
 17 18  2  0
 17 22  1  0
 18 19  1  0
 19 20  2  0
 20 21  1  0
 21 22  2  0
M  END
>  <minimizedAffinity>  (5) 
-6.59905

>  <Compliance>  (5) 
96.29629629629629

$$$$
ligand
     RDKit          3D

 29 32  0  0  0  0  0  0  0  0999 V2000
   55.1534   30.7274   30.3499 O   0  0  0  0  0  0  0  0  0  0  0  0
   56.1786   30.4730   30.9788 C   0  0  0  0  0  0  0  0  0  0  0  0
   57.1912   29.6237   30.5606 N   0  0  0  0  0  0  0  0  0  0  0  0
   56.4711   31.1215   32.3147 C   0  0  0  0  0  0  0  0  0  0  0  0
   57.0978   32.4812   32.1344 C   0  0  1  0  0  0  0  0  0  0  0  0
   57.7991   32.4638   30.8961 O   0  0  0  0  0  0  0  0  0  0  0  0
   58.2292   33.7025   30.5052 C   0  0  0  0  0  0  0  0  0  0  0  0
   59.3209   33.7690   29.6411 C   0  0  0  0  0  0  0  0  0  0  0  0
   59.7714   35.0107   29.1914 C   0  0  0  0  0  0  0  0  0  0  0  0
   59.1220   36.1799   29.5923 C   0  0  0  0  0  0  0  0  0  0  0  0
   58.0165   36.1121   30.4409 C   0  0  0  0  0  0  0  0  0  0  0  0
   57.5743   34.8698   30.8964 C   0  0  0  0  0  0  0  0  0  0  0  0
   56.4339   34.7820   31.7027 N   0  0  0  0  0  0  0  0  0  0  0  0
   56.0493   33.5871   32.2759 C   0  0  0  0  0  0  0  0  0  0  0  0
   55.0043   33.4476   32.9074 O   0  0  0  0  0  0  0  0  0  0  0  0
   57.1574   28.9232   29.3075 C   0  0  1  0  0  0  0  0  0  0  0  0
   58.0477   29.6253   28.3470 C   0  0  0  0  0  0  0  0  0  0  0  0
   57.6604   30.8402   27.7760 C   0  0  0  0  0  0  0  0  0  0  0  0
   58.4957   31.5096   26.8694 C   0  0  0  0  0  0  0  0  0  0  0  0
   59.7462   30.9944   26.4943 C   0  0  0  0  0  0  0  0  0  0  0  0
   60.0972   29.7618   27.0780 C   0  0  0  0  0  0  0  0  0  0  0  0
   59.2766   29.0756   27.9836 C   0  0  0  0  0  0  0  0  0  0  0  0
   57.6214   27.4788   29.5598 C   0  0  0  0  0  0  0  0  0  0  0  0
   56.6107   26.4650   29.1610 C   0  0  0  0  0  0  0  0  0  0  0  0
   56.0105   26.5170   27.9003 C   0  0  0  0  0  0  0  0  0  0  0  0
   55.0565   25.5633   27.5161 C   0  0  0  0  0  0  0  0  0  0  0  0
   54.6613   24.5237   28.3721 C   0  0  0  0  0  0  0  0  0  0  0  0
   55.2759   24.5109   29.6392 C   0  0  0  0  0  0  0  0  0  0  0  0
   56.2290   25.4554   30.0438 C   0  0  0  0  0  0  0  0  0  0  0  0
  1  2  2  0
  2  4  1  0
  2  3  1  0
  5  4  1  6
  5  6  1  0
  5 14  1  0
  6  7  1  0
  7  8  2  0
  7 12  1  0
  8  9  1  0
  9 10  2  0
 10 11  1  0
 11 12  2  0
 12 13  1  0
 13 14  1  0
 14 15  2  0
  3 16  1  0
 16 23  1  1
 16 17  1  0
 23 24  1  0
 24 25  2  0
 24 29  1  0
 25 26  1  0
 26 27  2  0
 27 28  1  0
 28 29  2  0
 17 18  2  0
 17 22  1  0
 18 19  1  0
 19 20  2  0
 20 21  1  0
 21 22  2  0
M  END
>  <minimizedAffinity>  (6) 
-6.58853

>  <Compliance>  (6) 
96.29629629629629

$$$$
ligand
     RDKit          3D

 29 32  0  0  0  0  0  0  0  0999 V2000
   57.2692   31.9884   27.5828 O   0  0  0  0  0  0  0  0  0  0  0  0
   57.3403   32.1227   28.8026 C   0  0  0  0  0  0  0  0  0  0  0  0
   58.4998   32.3731   29.5200 N   0  0  0  0  0  0  0  0  0  0  0  0
   56.1084   32.0661   29.6800 C   0  0  0  0  0  0  0  0  0  0  0  0
   55.9120   30.6858   30.2545 C   0  0  1  0  0  0  0  0  0  0  0  0
   56.5112   29.7621   29.3526 O   0  0  0  0  0  0  0  0  0  0  0  0
   56.5984   28.4949   29.8611 C   0  0  0  0  0  0  0  0  0  0  0  0
   56.6675   27.4352   28.9582 C   0  0  0  0  0  0  0  0  0  0  0  0
   56.7909   26.1292   29.4338 C   0  0  0  0  0  0  0  0  0  0  0  0
   56.8607   25.8863   30.8070 C   0  0  0  0  0  0  0  0  0  0  0  0
   56.8122   26.9486   31.7103 C   0  0  0  0  0  0  0  0  0  0  0  0
   56.6793   28.2525   31.2321 C   0  0  0  0  0  0  0  0  0  0  0  0
   56.6853   29.3319   32.1226 N   0  0  0  0  0  0  0  0  0  0  0  0
   56.4238   30.6177   31.6953 C   0  0  0  0  0  0  0  0  0  0  0  0
   56.5156   31.6025   32.4246 O   0  0  0  0  0  0  0  0  0  0  0  0
   59.7888   32.5082   28.9017 C   0  0  1  0  0  0  0  0  0  0  0  0
   60.0880   33.9547   28.7392 C   0  0  0  0  0  0  0  0  0  0  0  0
   61.1245   34.3768   27.9028 C   0  0  0  0  0  0  0  0  0  0  0  0
   61.4126   35.7404   27.7434 C   0  0  0  0  0  0  0  0  0  0  0  0
   60.6825   36.7352   28.4121 C   0  0  0  0  0  0  0  0  0  0  0  0
   59.6554   36.2728   29.2574 C   0  0  0  0  0  0  0  0  0  0  0  0
   59.3531   34.9155   29.4327 C   0  0  0  0  0  0  0  0  0  0  0  0
   60.8220   31.8127   29.8039 C   0  0  0  0  0  0  0  0  0  0  0  0
   61.7929   30.9830   29.0441 C   0  0  0  0  0  0  0  0  0  0  0  0
   63.1578   31.0377   29.3376 C   0  0  0  0  0  0  0  0  0  0  0  0
   64.0803   30.2569   28.6256 C   0  0  0  0  0  0  0  0  0  0  0  0
   63.6804   29.3945   27.5931 C   0  0  0  0  0  0  0  0  0  0  0  0
   62.2999   29.3759   27.3151 C   0  0  0  0  0  0  0  0  0  0  0  0
   61.3622   30.1497   28.0123 C   0  0  0  0  0  0  0  0  0  0  0  0
  1  2  2  0
  2  4  1  0
  2  3  1  0
  5  4  1  6
  5  6  1  0
  5 14  1  0
  6  7  1  0
  7  8  2  0
  7 12  1  0
  8  9  1  0
  9 10  2  0
 10 11  1  0
 11 12  2  0
 12 13  1  0
 13 14  1  0
 14 15  2  0
  3 16  1  0
 16 23  1  1
 16 17  1  0
 23 24  1  0
 24 25  2  0
 24 29  1  0
 25 26  1  0
 26 27  2  0
 27 28  1  0
 28 29  2  0
 17 18  2  0
 17 22  1  0
 18 19  1  0
 19 20  2  0
 20 21  1  0
 21 22  2  0
M  END
>  <minimizedAffinity>  (7) 
-6.52663

>  <Compliance>  (7) 
96.29629629629629

$$$$
ligand
     RDKit          3D

 29 32  0  0  0  0  0  0  0  0999 V2000
   55.1472   30.6845   30.4159 O   0  0  0  0  0  0  0  0  0  0  0  0
   56.0127   30.7097   31.2884 C   0  0  0  0  0  0  0  0  0  0  0  0
   57.1681   29.9437   31.3004 N   0  0  0  0  0  0  0  0  0  0  0  0
   55.9206   31.6507   32.4703 C   0  0  0  0  0  0  0  0  0  0  0  0
   56.6108   32.9595   32.1793 C   0  0  1  0  0  0  0  0  0  0  0  0
   57.4567   32.7515   31.0537 O   0  0  0  0  0  0  0  0  0  0  0  0
   57.9734   33.9134   30.5484 C   0  0  0  0  0  0  0  0  0  0  0  0
   59.1638   33.8361   29.8274 C   0  0  0  0  0  0  0  0  0  0  0  0
   59.7080   34.9921   29.2665 C   0  0  0  0  0  0  0  0  0  0  0  0
   59.0551   36.2175   29.4133 C   0  0  0  0  0  0  0  0  0  0  0  0
   57.8528   36.2915   30.1175 C   0  0  0  0  0  0  0  0  0  0  0  0
   57.3161   35.1356   30.6852 C   0  0  0  0  0  0  0  0  0  0  0  0
   56.0837   35.1842   31.3464 N   0  0  0  0  0  0  0  0  0  0  0  0
   55.5915   34.0913   32.0302 C   0  0  0  0  0  0  0  0  0  0  0  0
   54.4732   34.0619   32.5390 O   0  0  0  0  0  0  0  0  0  0  0  0
   57.4956   29.0053   30.2639 C   0  0  1  0  0  0  0  0  0  0  0  0
   56.8670   27.6990   30.5902 C   0  0  0  0  0  0  0  0  0  0  0  0
   56.3600   27.4535   31.8688 C   0  0  0  0  0  0  0  0  0  0  0  0
   55.7643   26.2233   32.1843 C   0  0  0  0  0  0  0  0  0  0  0  0
   55.6529   25.1901   31.2409 C   0  0  0  0  0  0  0  0  0  0  0  0
   56.1874   25.4674   29.9678 C   0  0  0  0  0  0  0  0  0  0  0  0
   56.7888   26.6882   29.6328 C   0  0  0  0  0  0  0  0  0  0  0  0
   56.9732   29.5696   28.9319 C   0  0  0  0  0  0  0  0  0  0  0  0
   58.0020   30.3351   28.1810 C   0  0  0  0  0  0  0  0  0  0  0  0
   59.3479   29.9648   28.2403 C   0  0  0  0  0  0  0  0  0  0  0  0
   60.3248   30.6817   27.5336 C   0  0  0  0  0  0  0  0  0  0  0  0
   60.0003   31.7955   26.7437 C   0  0  0  0  0  0  0  0  0  0  0  0
   58.6371   32.1485   26.7190 C   0  0  0  0  0  0  0  0  0  0  0  0
   57.6460   31.4476   27.4195 C   0  0  0  0  0  0  0  0  0  0  0  0
  1  2  2  0
  2  4  1  0
  2  3  1  0
  5  4  1  6
  5  6  1  0
  5 14  1  0
  6  7  1  0
  7  8  2  0
  7 12  1  0
  8  9  1  0
  9 10  2  0
 10 11  1  0
 11 12  2  0
 12 13  1  0
 13 14  1  0
 14 15  2  0
  3 16  1  0
 16 23  1  6
 16 17  1  0
 23 24  1  0
 24 25  2  0
 24 29  1  0
 25 26  1  0
 26 27  2  0
 27 28  1  0
 28 29  2  0
 17 18  2  0
 17 22  1  0
 18 19  1  0
 19 20  2  0
 20 21  1  0
 21 22  2  0
M  END
>  <minimizedAffinity>  (8) 
-6.36327

>  <Compliance>  (8) 
96.29629629629629

$$$$
ligand
     RDKit          3D

 29 32  0  0  0  0  0  0  0  0999 V2000
   58.8101   29.9919   27.0854 O   0  0  0  0  0  0  0  0  0  0  0  0
   58.7422   30.2142   28.2925 C   0  0  0  0  0  0  0  0  0  0  0  0
   59.7042   30.8670   29.0475 N   0  0  0  0  0  0  0  0  0  0  0  0
   57.5293   29.8159   29.1055 C   0  0  0  0  0  0  0  0  0  0  0  0
   57.2376   30.8313   30.1815 C   0  0  1  0  0  0  0  0  0  0  0  0
   56.9164   32.0565   29.5323 O   0  0  0  0  0  0  0  0  0  0  0  0
   56.4167   33.0016   30.3862 C   0  0  0  0  0  0  0  0  0  0  0  0
   56.5481   34.3408   30.0227 C   0  0  0  0  0  0  0  0  0  0  0  0
   56.0231   35.3356   30.8485 C   0  0  0  0  0  0  0  0  0  0  0  0
   55.3554   34.9905   32.0252 C   0  0  0  0  0  0  0  0  0  0  0  0
   55.2058   33.6490   32.3789 C   0  0  0  0  0  0  0  0  0  0  0  0
   55.7401   32.6572   31.5560 C   0  0  0  0  0  0  0  0  0  0  0  0
   55.5499   31.3065   31.8687 N   0  0  0  0  0  0  0  0  0  0  0  0
   56.1754   30.3076   31.1510 C   0  0  0  0  0  0  0  0  0  0  0  0
   55.9586   29.1114   31.3304 O   0  0  0  0  0  0  0  0  0  0  0  0
   60.9265   31.3734   28.4891 C   0  0  1  0  0  0  0  0  0  0  0  0
   60.7528   32.8207   28.2005 C   0  0  0  0  0  0  0  0  0  0  0  0
   61.2094   33.3657   26.9977 C   0  0  0  0  0  0  0  0  0  0  0  0
   61.0483   34.7307   26.7175 C   0  0  0  0  0  0  0  0  0  0  0  0
   60.4296   35.6054   27.6240 C   0  0  0  0  0  0  0  0  0  0  0  0
   59.9951   35.0246   28.8311 C   0  0  0  0  0  0  0  0  0  0  0  0
   60.1487   33.6644   29.1319 C   0  0  0  0  0  0  0  0  0  0  0  0
   62.0505   31.1291   29.5100 C   0  0  0  0  0  0  0  0  0  0  0  0
   63.4032   31.1208   28.8951 C   0  0  0  0  0  0  0  0  0  0  0  0
   63.8824   29.9800   28.2462 C   0  0  0  0  0  0  0  0  0  0  0  0
   65.1578   29.9647   27.6624 C   0  0  0  0  0  0  0  0  0  0  0  0
   66.0057   31.0822   27.7046 C   0  0  0  0  0  0  0  0  0  0  0  0
   65.4959   32.2087   28.3789 C   0  0  0  0  0  0  0  0  0  0  0  0
   64.2261   32.2440   28.9710 C   0  0  0  0  0  0  0  0  0  0  0  0
  1  2  2  0
  2  4  1  0
  2  3  1  0
  5  4  1  6
  5  6  1  0
  5 14  1  0
  6  7  1  0
  7  8  2  0
  7 12  1  0
  8  9  1  0
  9 10  2  0
 10 11  1  0
 11 12  2  0
 12 13  1  0
 13 14  1  0
 14 15  2  0
  3 16  1  0
 16 23  1  1
 16 17  1  0
 23 24  1  0
 24 25  2  0
 24 29  1  0
 25 26  1  0
 26 27  2  0
 27 28  1  0
 28 29  2  0
 17 18  2  0
 17 22  1  0
 18 19  1  0
 19 20  2  0
 20 21  1  0
 21 22  2  0
M  END
>  <minimizedAffinity>  (9) 
-6.29669

>  <Compliance>  (9) 
96.29629629629629

$$$$
